# created with PyMOL 3.1.6.1
@<TRIPOS>MOLECULE
ligand_obj
48 50 1                 
SMALL
USER_CHARGES
@<TRIPOS>ATOM
1	  C1	-0.825	31.998	26.520	C.2	1	6FF301	0.000	
2	  C2	-2.058	32.306	25.949	C.2	1	6FF301	0.000	
3	  C3	-2.097	33.050	24.787	C.2	1	6FF301	0.000	
4	  C4	-0.891	33.454	24.167	C.2	1	6FF301	0.000	
5	  C5	0.333	33.136	24.750	C.2	1	6FF301	0.000	
6	  C6	0.377	32.456	25.943	C.2	1	6FF301	0.000	
7	  O7	-0.833	31.322	27.690	O.3	1	6FF301	0.000	
8	  O8	-3.314	33.350	24.263	O.3	1	6FF301	0.000	
9	  C9	-0.887	34.320	22.976	C.2	1	6FF301	0.000	
10	 N10	-1.555	34.100	21.875	N.2	1	6FF301	0.000	
11	 N11	-1.314	35.167	21.022	N.pl3	1	6FF301	0.000	
12	 C12	-0.504	36.052	21.647	C.2	1	6FF301	0.000	
13	 N13	-0.230	35.552	22.875	N.pl3	1	6FF301	0.000	
14	 C14	0.533	36.181	23.883	C.2	1	6FF301	0.000	
15	 C15	1.929	36.111	23.846	C.2	1	6FF301	0.000	
16	 C16	2.693	36.720	24.849	C.2	1	6FF301	0.000	
17	 C17	2.058	37.359	25.916	C.2	1	6FF301	0.000	
18	 C18	0.668	37.441	25.959	C.2	1	6FF301	0.000	
19	 C19	-0.093	36.860	24.939	C.2	1	6FF301	0.000	
20	 O20	-0.116	37.119	21.188	O.2	1	6FF301	0.000	
21	 S21	1.982	32.065	26.581	S.O2	1	6FF301	0.000	
22	 O22	2.884	33.017	25.987	O.2	1	6FF301	0.000	
23	 O23	1.818	32.021	27.997	O.2	1	6FF301	0.000	
24	 N24	2.244	30.587	25.890	N.3	1	6FF301	0.000	
25	 C25	3.075	30.426	24.666	C.3	1	6FF301	0.000	
26	 C26	4.364	29.622	24.932	C.3	1	6FF301	0.000	
27	 C27	5.007	29.279	23.589	C.3	1	6FF301	0.000	
28	 C28	1.516	29.450	26.420	C.3	1	6FF301	0.000	
29	 F29	2.520	35.498	22.795	 F	1	6FF301	0.000	
30	 H01	-2.982	31.963	26.415	 H	1	6FF301	0.000	
31	 H02	1.261	33.428	24.258	 H	1	6FF301	0.000	
32	 H03	0.061	31.268	28.035	 H	1	6FF301	0.000	
33	 H04	-3.647	32.594	23.773	 H	1	6FF301	0.000	
34	 H05	-1.683	35.267	20.087	 H	1	6FF301	0.000	
35	 H06	3.781	36.695	24.797	 H	1	6FF301	0.000	
36	 H07	2.652	37.795	26.719	 H	1	6FF301	0.000	
37	 H08	0.175	37.956	26.784	 H	1	6FF301	0.000	
38	 H09	-1.180	36.935	24.965	 H	1	6FF301	0.000	
39	 H10	3.368	31.421	24.330	 H	1	6FF301	0.000	
40	 H11	2.487	29.906	23.909	 H	1	6FF301	0.000	
41	 H12	4.128	28.708	25.477	 H	1	6FF301	0.000	
42	 H13	5.054	30.219	25.529	 H	1	6FF301	0.000	
43	 H14	6.019	28.910	23.755	 H	1	6FF301	0.000	
44	 H15	4.418	28.510	23.089	 H	1	6FF301	0.000	
45	 H16	5.044	30.172	22.965	 H	1	6FF301	0.000	
46	 H17	0.544	29.382	25.931	 H	1	6FF301	0.000	
47	 H18	2.081	28.537	26.233	 H	1	6FF301	0.000	
48	 H19	1.374	29.577	27.493	 H	1	6FF301	0.000	
@<TRIPOS>BOND
1 1 2 2
2 2 30 1
3 2 3 1
4 3 4 2
5 4 5 1
6 5 31 1
7 1 6 1
8 5 6 2
9 1 7 1
10 7 32 1
11 3 8 1
12 8 33 1
13 4 9 1
14 9 10 2
15 10 11 1
16 11 34 1
17 11 12 1
18 9 13 1
19 12 13 1
20 13 14 1
21 14 15 2
22 15 16 1
23 16 35 1
24 16 17 2
25 17 36 1
26 17 18 1
27 18 37 1
28 14 19 1
29 18 19 2
30 19 38 1
31 12 20 2
32 6 21 1
33 21 22 2
34 21 23 2
35 21 24 1
36 24 25 1
37 25 39 1
38 25 40 1
39 25 26 1
40 26 41 1
41 26 42 1
42 26 27 1
43 27 43 1
44 27 44 1
45 27 45 1
46 24 28 1
47 28 46 1
48 28 47 1
49 28 48 1
50 15 29 1
@<TRIPOS>SUBSTRUCTURE
1	6FF301	1	GROUP	1 A	6FF
