# created with PyMOL 3.1.6.1
@<TRIPOS>MOLECULE
ligand_obj
50 52 1                 
SMALL
USER_CHARGES
@<TRIPOS>ATOM
1	  C1	-33.565	-7.434	24.635	C.2	1	6GC301	0.000	
2	  C2	-33.066	-12.208	23.138	C.2	1	6GC301	0.000	
3	  C3	-31.776	-11.878	23.597	C.2	1	6GC301	0.000	
4	  C4	-31.619	-11.136	24.769	C.2	1	6GC301	0.000	
5	  C5	-32.759	-10.691	25.474	C.2	1	6GC301	0.000	
6	  C6	-34.032	-11.038	25.026	C.2	1	6GC301	0.000	
7	  C7	-34.209	-11.766	23.848	C.2	1	6GC301	0.000	
8	  C8	-32.658	-9.824	26.669	C.2	1	6GC301	0.000	
9	  N9	-31.966	-10.057	27.760	N.2	1	6GC301	0.000	
10	 N10	-33.318	-8.603	26.786	N.pl3	1	6GC301	0.000	
11	 O11	-30.388	-10.820	25.241	O.3	1	6GC301	0.000	
12	 O12	-33.228	-12.936	22.019	O.3	1	6GC301	0.000	
13	 N13	-32.196	-8.986	28.627	N.pl3	1	6GC301	0.000	
14	 C14	-33.032	-8.109	28.015	C.2	1	6GC301	0.000	
15	 O15	-33.447	-7.046	28.477	O.2	1	6GC301	0.000	
16	 C16	-34.132	-7.977	25.803	C.2	1	6GC301	0.000	
17	 C17	-35.525	-7.913	25.973	C.2	1	6GC301	0.000	
18	 C18	-36.332	-7.309	25.004	C.2	1	6GC301	0.000	
19	 C19	-35.743	-6.769	23.855	C.2	1	6GC301	0.000	
20	 C20	-35.616	-12.145	23.573	C.2	1	6GC301	0.000	
21	 N21	-36.082	-13.366	23.990	N.pl3	1	6GC301	0.000	
22	 O22	-36.396	-11.311	23.127	O.2	1	6GC301	0.000	
23	 C23	-37.508	-13.712	23.888	C.3	1	6GC301	0.000	
24	 C24	-38.221	-13.431	25.228	C.3	1	6GC301	0.000	
25	 C25	-34.364	-6.835	23.664	C.2	1	6GC301	0.000	
26	 C26	-35.185	-14.407	24.520	C.3	1	6GC301	0.000	
27	 C27	-39.722	-15.046	26.357	C.3	1	6GC301	0.000	
28	 C28	-39.614	-14.073	25.192	C.3	1	6GC301	0.000	
29	 F29	-36.079	-8.430	27.085	 F	1	6GC301	0.000	
30	 H01	-32.486	-7.483	24.488	 H	1	6GC301	0.000	
31	 H02	-30.899	-12.202	23.036	 H	1	6GC301	0.000	
32	 H03	-34.905	-10.736	25.605	 H	1	6GC301	0.000	
33	 H04	-30.053	-11.545	25.773	 H	1	6GC301	0.000	
34	 H05	-33.557	-13.808	22.249	 H	1	6GC301	0.000	
35	 H06	-31.806	-8.882	29.553	 H	1	6GC301	0.000	
36	 H07	-37.412	-7.259	25.142	 H	1	6GC301	0.000	
37	 H08	-36.369	-6.292	23.101	 H	1	6GC301	0.000	
38	 H09	-37.601	-14.772	23.651	 H	1	6GC301	0.000	
39	 H10	-37.969	-13.114	23.102	 H	1	6GC301	0.000	
40	 H11	-38.313	-12.356	25.379	 H	1	6GC301	0.000	
41	 H12	-37.642	-13.856	26.048	 H	1	6GC301	0.000	
42	 H13	-33.914	-6.421	22.762	 H	1	6GC301	0.000	
43	 H14	-34.277	-13.942	24.903	 H	1	6GC301	0.000	
44	 H15	-35.686	-14.943	25.326	 H	1	6GC301	0.000	
45	 H16	-34.927	-15.105	23.724	 H	1	6GC301	0.000	
46	 H17	-40.772	-15.262	26.553	 H	1	6GC301	0.000	
47	 H18	-39.202	-15.971	26.108	 H	1	6GC301	0.000	
48	 H19	-39.271	-14.602	27.245	 H	1	6GC301	0.000	
49	 H20	-39.760	-14.599	24.249	 H	1	6GC301	0.000	
50	 H21	-40.379	-13.302	25.283	 H	1	6GC301	0.000	
@<TRIPOS>BOND
1 1 30 1
2 2 3 2
3 3 31 1
4 3 4 1
5 4 5 2
6 5 6 1
7 6 32 1
8 2 7 1
9 6 7 2
10 5 8 1
11 8 9 2
12 8 10 1
13 4 11 1
14 11 33 1
15 2 12 1
16 12 34 1
17 9 13 1
18 13 35 1
19 10 14 1
20 13 14 1
21 14 15 2
22 1 16 2
23 10 16 1
24 16 17 1
25 17 18 2
26 18 36 1
27 18 19 1
28 19 37 1
29 7 20 1
30 20 21 1
31 20 22 2
32 21 23 1
33 23 38 1
34 23 39 1
35 23 24 1
36 24 40 1
37 24 41 1
38 1 25 1
39 19 25 2
40 25 42 1
41 21 26 1
42 26 43 1
43 26 44 1
44 26 45 1
45 27 46 1
46 27 47 1
47 27 48 1
48 24 28 1
49 27 28 1
50 28 49 1
51 28 50 1
52 17 29 1
@<TRIPOS>SUBSTRUCTURE
1	6GC301	1	GROUP	1 A	6GC
