# created with PyMOL 3.1.6.1
@<TRIPOS>MOLECULE
ligand_obj
52 58 1                 
SMALL
USER_CHARGES
@<TRIPOS>ATOM
1	  C1	13.310	14.405	26.485	C.2	1	YKI1224	0.000	
2	  N1	13.026	14.614	27.834	N.2	1	YKI1224	0.000	
3	  C2	11.716	14.696	28.295	C.2	1	YKI1224	0.000	
4	  N2	9.291	14.593	27.488	N.pl3	1	YKI1224	0.000	
5	  C3	12.283	14.261	25.522	C.2	1	YKI1224	0.000	
6	  N3	9.740	14.258	25.343	N.2	1	YKI1224	0.000	
7	  C4	8.758	14.411	26.268	C.2	1	YKI1224	0.000	
8	  N4	3.569	11.956	24.655	N.pl3	1	YKI1224	0.000	
9	  C5	10.953	14.344	25.969	C.2	1	YKI1224	0.000	
10	  N5	-1.162	10.267	26.134	N.2	1	YKI1224	0.000	
11	  C6	10.658	14.559	27.374	C.2	1	YKI1224	0.000	
12	  N6	-2.359	11.562	24.386	N.pl3	1	YKI1224	0.000	
13	  C7	7.331	14.405	26.030	C.2	1	YKI1224	0.000	
14	  C8	4.475	14.576	25.639	C.2	1	YKI1224	0.000	
15	  C9	5.159	15.577	26.392	C.2	1	YKI1224	0.000	
16	 C10	6.578	15.475	26.577	C.2	1	YKI1224	0.000	
17	 C11	2.444	11.485	24.079	C.2	1	YKI1224	0.000	
18	 C12	1.243	11.011	24.859	C.2	1	YKI1224	0.000	
19	 O13	2.424	11.480	22.839	O.2	1	YKI1224	0.000	
20	 C14	1.292	10.182	26.038	C.2	1	YKI1224	0.000	
21	 C15	0.047	9.826	26.664	C.2	1	YKI1224	0.000	
22	 C16	4.571	12.387	24.272	C.3	1	YKI1224	0.000	
23	 C17	5.196	13.465	25.065	C.2	1	YKI1224	0.000	
24	 C18	6.585	13.335	25.230	C.2	1	YKI1224	0.000	
25	 C19	5.824	11.517	23.956	C.2	1	YKI1224	0.000	
26	 C20	7.009	12.105	24.525	C.2	1	YKI1224	0.000	
27	 C21	8.293	11.433	24.326	C.2	1	YKI1224	0.000	
28	 C22	8.370	10.214	23.575	C.2	1	YKI1224	0.000	
29	 C23	7.160	9.637	23.009	C.2	1	YKI1224	0.000	
30	 C24	5.896	10.288	23.198	C.2	1	YKI1224	0.000	
31	 C25	-0.080	11.456	24.325	C.2	1	YKI1224	0.000	
32	 C26	-1.224	11.073	24.992	C.2	1	YKI1224	0.000	
33	 C27	-1.935	12.299	23.294	C.2	1	YKI1224	0.000	
34	 C28	-0.527	12.264	23.221	C.2	1	YKI1224	0.000	
35	 H01	14.350	14.351	26.164	 H	1	YKI1224	0.000	
36	 H02	11.511	14.864	29.352	 H	1	YKI1224	0.000	
37	 H03	8.773	14.731	28.344	 H	1	YKI1224	0.000	
38	 H04	12.515	14.092	24.471	 H	1	YKI1224	0.000	
39	 H05	3.526	11.925	25.664	 H	1	YKI1224	0.000	
40	 H06	-3.314	11.412	24.680	 H	1	YKI1224	0.000	
41	 H07	3.397	14.651	25.496	 H	1	YKI1224	0.000	
42	 H08	4.608	16.413	26.823	 H	1	YKI1224	0.000	
43	 H09	7.093	16.243	27.155	 H	1	YKI1224	0.000	
44	 H10	2.243	9.836	26.442	 H	1	YKI1224	0.000	
45	 H11	0.050	9.206	27.560	 H	1	YKI1224	0.000	
46	 H12	4.069	12.667	23.346	 H	1	YKI1224	0.000	
47	 H13	9.199	11.863	24.752	 H	1	YKI1224	0.000	
48	 H14	9.331	9.721	23.429	 H	1	YKI1224	0.000	
49	 H15	7.214	8.709	22.440	 H	1	YKI1224	0.000	
50	 H16	4.991	9.857	22.771	 H	1	YKI1224	0.000	
51	 H17	-2.588	12.825	22.598	 H	1	YKI1224	0.000	
52	 H18	0.100	12.753	22.475	 H	1	YKI1224	0.000	
@<TRIPOS>BOND
1 1 35 1
2 1 2 1
3 2 3 2
4 3 36 1
5 4 37 1
6 1 5 2
7 5 38 1
8 4 7 1
9 6 7 2
10 8 39 1
11 5 9 1
12 6 9 1
13 3 11 1
14 4 11 1
15 9 11 2
16 12 40 1
17 7 13 1
18 14 41 1
19 14 15 1
20 15 42 1
21 13 16 1
22 15 16 2
23 16 43 1
24 8 17 1
25 17 18 1
26 17 19 2
27 18 20 1
28 20 44 1
29 10 21 1
30 20 21 2
31 21 45 1
32 8 22 1
33 22 46 1
34 14 23 2
35 22 23 1
36 13 24 2
37 23 24 1
38 22 25 1
39 24 26 1
40 25 26 1
41 26 27 2
42 27 47 1
43 27 28 1
44 28 48 1
45 28 29 2
46 29 49 1
47 25 30 2
48 29 30 1
49 30 50 1
50 18 31 2
51 10 32 2
52 12 32 1
53 31 32 1
54 12 33 1
55 33 51 1
56 31 34 1
57 33 34 2
58 34 52 1
@<TRIPOS>SUBSTRUCTURE
1	YKI1224	1	GROUP	1 A	YKI
