6GV
  PyMOL3.1          3D                             0

 48 50  0  0  0  0  0  0  0  0999 V2000
   -0.6910   33.0390  -23.1320 C   0  0  0  0  0  0  0  0  0  0  0  0
   -1.9580   33.3120  -23.6510 C   0  0  0  0  0  0  0  0  0  0  0  0
   -2.0730   34.0580  -24.8140 C   0  0  0  0  0  0  0  0  0  0  0  0
   -0.9310   34.5490  -25.4440 C   0  0  0  0  0  0  0  0  0  0  0  0
    0.3230   34.2480  -24.9330 C   0  0  0  0  0  0  0  0  0  0  0  0
    0.4640   33.5410  -23.7700 C   0  0  0  0  0  0  0  0  0  0  0  0
   -0.6030   32.2730  -22.0100 O   0  0  0  0  0  0  0  0  0  0  0  0
   -3.2850   34.3080  -25.3330 O   0  0  0  0  0  0  0  0  0  0  0  0
   -0.9870   35.4320  -26.6200 C   0  0  0  0  0  0  0  0  0  0  0  0
   -1.6460   35.2130  -27.7230 N   0  0  0  0  0  0  0  0  0  0  0  0
   -1.3940   36.3120  -28.5590 N   0  0  0  0  0  0  0  0  0  0  0  0
   -0.5690   37.1720  -27.9120 C   0  0  0  0  0  0  0  0  0  0  0  0
   -0.3120   36.6480  -26.7050 N   0  0  0  0  0  0  0  0  0  0  0  0
    0.4980   37.2720  -25.7160 C   0  0  0  0  0  0  0  0  0  0  0  0
    1.9070   37.2190  -25.7660 C   0  0  0  0  0  0  0  0  0  0  0  0
    2.6800   37.8150  -24.7650 C   0  0  0  0  0  0  0  0  0  0  0  0
    2.0490   38.4930  -23.7210 C   0  0  0  0  0  0  0  0  0  0  0  0
    0.6610   38.5850  -23.6940 C   0  0  0  0  0  0  0  0  0  0  0  0
   -0.1150   37.9780  -24.6780 C   0  0  0  0  0  0  0  0  0  0  0  0
   -0.1180   38.2360  -28.3080 O   0  0  0  0  0  0  0  0  0  0  0  0
    2.1250   33.2500  -23.2180 S   0  0  0  0  0  0  0  0  0  0  0  0
    2.9210   34.3150  -23.7420 O   0  0  0  0  0  0  0  0  0  0  0  0
    2.0130   33.0780  -21.8150 O   0  0  0  0  0  0  0  0  0  0  0  0
    2.6010   31.8070  -23.9280 N   0  0  0  0  0  0  0  0  0  0  0  0
    1.7830   30.6180  -23.6580 C   0  0  0  0  0  0  0  0  0  0  0  0
    3.7860   31.7090  -24.8400 C   0  0  0  0  0  0  0  0  0  0  0  0
    5.1470   31.7270  -24.1220 C   0  0  0  0  0  0  0  0  0  0  0  0
    3.7840   30.5280  -25.8340 C   0  0  0  0  0  0  0  0  0  0  0  0
    2.5270   36.5730  -26.7740 F   0  0  0  0  0  0  0  0  0  0  0  0
   -2.8499   32.9415  -23.1458 H   0  0  0  0  0  0  0  0  0  0  0  0
    1.2125   34.5809  -25.4678 H   0  0  0  0  0  0  0  0  0  0  0  0
   -0.1050   31.4756  -22.2045 H   0  0  0  0  0  0  0  0  0  0  0  0
   -3.6217   33.5154  -25.7573 H   0  0  0  0  0  0  0  0  0  0  0  0
   -1.7659   36.4410  -29.4892 H   0  0  0  0  0  0  0  0  0  0  0  0
    3.7675   37.7506  -24.7997 H   0  0  0  0  0  0  0  0  0  0  0  0
    2.6422   38.9494  -22.9286 H   0  0  0  0  0  0  0  0  0  0  0  0
    0.1745   39.1397  -22.8917 H   0  0  0  0  0  0  0  0  0  0  0  0
   -1.2016   38.0538  -24.6384 H   0  0  0  0  0  0  0  0  0  0  0  0
    0.8319   30.7050  -24.1834 H   0  0  0  0  0  0  0  0  0  0  0  0
    2.3087   29.7283  -24.0045 H   0  0  0  0  0  0  0  0  0  0  0  0
    1.5995   30.5381  -22.5865 H   0  0  0  0  0  0  0  0  0  0  0  0
    3.6628   32.6267  -25.4152 H   0  0  0  0  0  0  0  0  0  0  0  0
    5.8515   32.3297  -24.6951 H   0  0  0  0  0  0  0  0  0  0  0  0
    5.0279   32.1561  -23.1271 H   0  0  0  0  0  0  0  0  0  0  0  0
    5.5266   30.7089  -24.0361 H   0  0  0  0  0  0  0  0  0  0  0  0
    4.2592   30.8367  -26.7651 H   0  0  0  0  0  0  0  0  0  0  0  0
    4.3352   29.6909  -25.4056 H   0  0  0  0  0  0  0  0  0  0  0  0
    2.7570   30.2230  -26.0347 H   0  0  0  0  0  0  0  0  0  0  0  0
  1  2  4  0  0  0  0
  1  6  4  0  0  0  0
  1  7  1  0  0  0  0
  2  3  4  0  0  0  0
  2 30  1  0  0  0  0
  3  4  4  0  0  0  0
  3  8  1  0  0  0  0
  4  5  4  0  0  0  0
  5  6  4  0  0  0  0
  5 31  1  0  0  0  0
  6 21  1  0  0  0  0
  7 32  1  0  0  0  0
  8 33  1  0  0  0  0
  4  9  1  0  0  0  0
  9 10  2  0  0  0  0
  9 13  1  0  0  0  0
 10 11  1  0  0  0  0
 11 34  1  0  0  0  0
 11 12  1  0  0  0  0
 12 13  1  0  0  0  0
 12 20  2  0  0  0  0
 13 14  1  0  0  0  0
 14 15  4  0  0  0  0
 14 19  4  0  0  0  0
 15 16  4  0  0  0  0
 15 29  1  0  0  0  0
 16 17  4  0  0  0  0
 16 35  1  0  0  0  0
 17 18  4  0  0  0  0
 17 36  1  0  0  0  0
 18 37  1  0  0  0  0
 18 19  4  0  0  0  0
 19 38  1  0  0  0  0
 21 22  2  0  0  0  0
 21 23  2  0  0  0  0
 21 24  1  0  0  0  0
 24 25  1  0  0  0  0
 24 26  1  0  0  0  0
 25 39  1  0  0  0  0
 25 40  1  0  0  0  0
 25 41  1  0  0  0  0
 26 28  1  0  0  0  0
 26 42  1  0  0  0  0
 26 27  1  0  0  0  0
 27 43  1  0  0  0  0
 27 44  1  0  0  0  0
 27 45  1  0  0  0  0
 28 46  1  0  0  0  0
 28 47  1  0  0  0  0
 28 48  1  0  0  0  0
M  END
$$$$
