# created with PyMOL 3.1.6.1
@<TRIPOS>MOLECULE
6GV
48 50 1                 
SMALL
USER_CHARGES
@<TRIPOS>ATOM
1	  C1	-0.691	33.039	-23.132	C.ar	1	6GV301	0.000	
2	  C2	-1.958	33.312	-23.651	C.ar	1	6GV301	0.000	
3	  C3	-2.073	34.058	-24.814	C.ar	1	6GV301	0.000	
4	  C4	-0.931	34.549	-25.444	C.ar	1	6GV301	0.000	
5	  C5	0.323	34.248	-24.933	C.ar	1	6GV301	0.000	
6	  C6	0.464	33.541	-23.770	C.ar	1	6GV301	0.000	
7	  O7	-0.603	32.273	-22.010	O.3	1	6GV301	0.000	
8	  O8	-3.285	34.308	-25.333	O.3	1	6GV301	0.000	
9	  C9	-0.987	35.432	-26.620	C.2	1	6GV301	0.000	
10	 N10	-1.646	35.213	-27.723	N.2	1	6GV301	0.000	
11	 N11	-1.394	36.312	-28.559	N.am	1	6GV301	0.000	
12	 C12	-0.569	37.172	-27.912	C.2	1	6GV301	0.000	
13	 N13	-0.312	36.648	-26.705	N.am	1	6GV301	0.000	
14	 C14	0.498	37.272	-25.716	C.ar	1	6GV301	0.000	
15	 C15	1.907	37.219	-25.766	C.ar	1	6GV301	0.000	
16	 C16	2.680	37.815	-24.765	C.ar	1	6GV301	0.000	
17	 C17	2.049	38.493	-23.721	C.ar	1	6GV301	0.000	
18	 C18	0.661	38.585	-23.694	C.ar	1	6GV301	0.000	
19	 C19	-0.115	37.978	-24.678	C.ar	1	6GV301	0.000	
20	 O20	-0.118	38.236	-28.308	O.2	1	6GV301	0.000	
21	 S21	2.125	33.250	-23.218	S.o2	1	6GV301	0.000	
22	 O22	2.921	34.315	-23.742	O.2	1	6GV301	0.000	
23	 O23	2.013	33.078	-21.815	O.2	1	6GV301	0.000	
24	 N24	2.601	31.807	-23.928	N.pl3	1	6GV301	0.000	
25	 C25	1.783	30.618	-23.658	C.3	1	6GV301	0.000	
26	 C26	3.786	31.709	-24.840	C.3	1	6GV301	0.000	
27	 C27	5.147	31.727	-24.122	C.3	1	6GV301	0.000	
28	 C28	3.784	30.528	-25.834	C.3	1	6GV301	0.000	
29	   F	2.527	36.573	-26.774	 F	1	6GV301	0.000	
30	 H01	-2.850	32.941	-23.146	 H	1	6GV301	0.000	
31	 H02	1.213	34.581	-25.468	 H	1	6GV301	0.000	
32	 H03	-0.105	31.476	-22.205	 H	1	6GV301	0.000	
33	 H04	-3.622	33.515	-25.757	 H	1	6GV301	0.000	
34	 H05	-1.766	36.441	-29.489	 H	1	6GV301	0.000	
35	 H06	3.768	37.751	-24.800	 H	1	6GV301	0.000	
36	 H07	2.642	38.949	-22.929	 H	1	6GV301	0.000	
37	 H08	0.174	39.140	-22.892	 H	1	6GV301	0.000	
38	 H09	-1.202	38.054	-24.638	 H	1	6GV301	0.000	
39	 H10	0.832	30.705	-24.183	 H	1	6GV301	0.000	
40	 H11	2.309	29.728	-24.004	 H	1	6GV301	0.000	
41	 H12	1.600	30.538	-22.587	 H	1	6GV301	0.000	
42	 H13	3.663	32.627	-25.415	 H	1	6GV301	0.000	
43	 H14	5.852	32.330	-24.695	 H	1	6GV301	0.000	
44	 H15	5.028	32.156	-23.127	 H	1	6GV301	0.000	
45	 H16	5.527	30.709	-24.036	 H	1	6GV301	0.000	
46	 H17	4.259	30.837	-26.765	 H	1	6GV301	0.000	
47	 H18	4.335	29.691	-25.406	 H	1	6GV301	0.000	
48	 H19	2.757	30.223	-26.035	 H	1	6GV301	0.000	
@<TRIPOS>BOND
1 1 2 ar
2 1 6 ar
3 1 7 1
4 2 3 ar
5 2 30 1
6 3 4 ar
7 3 8 1
8 4 5 ar
9 5 6 ar
10 5 31 1
11 6 21 1
12 7 32 1
13 8 33 1
14 4 9 1
15 9 10 2
16 9 13 1
17 10 11 1
18 11 34 1
19 11 12 1
20 12 13 1
21 12 20 2
22 13 14 1
23 14 15 ar
24 14 19 ar
25 15 16 ar
26 15 29 1
27 16 17 ar
28 16 35 1
29 17 18 ar
30 17 36 1
31 18 37 1
32 18 19 ar
33 19 38 1
34 21 22 2
35 21 23 2
36 21 24 1
37 24 25 1
38 24 26 1
39 25 39 1
40 25 40 1
41 25 41 1
42 26 28 1
43 26 42 1
44 26 27 1
45 27 43 1
46 27 44 1
47 27 45 1
48 28 46 1
49 28 47 1
50 28 48 1
@<TRIPOS>SUBSTRUCTURE
1	6GV301	1	GROUP	1 A	6GV
