# created with PyMOL 3.1.6.1
@<TRIPOS>MOLECULE
6G7
31 33 1                 
SMALL
USER_CHARGES
@<TRIPOS>ATOM
1	  C1	-1.502	11.896	22.625	C.2	1	6G7301	0.000	
2	  C2	-2.776	11.569	23.112	C.2	1	6G7301	0.000	
3	  C3	-2.882	10.787	24.241	C.2	1	6G7301	0.000	
4	  C4	-1.737	10.359	24.911	C.2	1	6G7301	0.000	
5	  C5	-0.468	10.683	24.414	C.2	1	6G7301	0.000	
6	  C6	-0.361	11.470	23.284	C.2	1	6G7301	0.000	
7	  O7	-1.374	12.604	21.473	O.3	1	6G7301	0.000	
8	  O8	-4.113	10.473	24.747	O.3	1	6G7301	0.000	
9	  C9	-1.802	9.450	26.046	C.2	1	6G7301	0.000	
10	 N10	-2.564	9.630	27.097	N.2	1	6G7301	0.000	
11	 N11	-2.371	8.503	27.927	N.pl3	1	6G7301	0.000	
12	 C12	-1.545	7.638	27.330	C.2	1	6G7301	0.000	
13	 N13	-1.161	8.197	26.151	N.pl3	1	6G7301	0.000	
14	 C14	-0.295	7.573	25.208	C.2	1	6G7301	0.000	
15	 C15	1.020	7.408	25.589	C.2	1	6G7301	0.000	
16	 C16	1.951	6.863	24.707	C.2	1	6G7301	0.000	
17	 C17	1.533	6.462	23.433	C.2	1	6G7301	0.000	
18	 C18	0.203	6.622	23.077	C.2	1	6G7301	0.000	
19	 C19	-0.719	7.192	23.942	C.2	1	6G7301	0.000	
20	 O20	-1.191	6.561	27.782	O.2	1	6G7301	0.000	
21	 F21	1.379	7.753	26.841	 F	1	6G7301	0.000	
22	 H01	-3.671	11.929	22.604	 H	1	6G7301	0.000	
23	 H02	0.428	10.317	24.915	 H	1	6G7301	0.000	
24	 H03	0.622	11.756	22.911	 H	1	6G7301	0.000	
25	 H04	-1.725	13.489	21.600	 H	1	6G7301	0.000	
26	 H05	-4.361	11.121	25.411	 H	1	6G7301	0.000	
27	 H06	-2.794	8.371	28.835	 H	1	6G7301	0.000	
28	 H07	2.993	6.750	25.006	 H	1	6G7301	0.000	
29	 H08	2.244	6.029	22.730	 H	1	6G7301	0.000	
30	 H09	-0.127	6.291	22.092	 H	1	6G7301	0.000	
31	 H10	-1.755	7.338	23.635	 H	1	6G7301	0.000	
@<TRIPOS>BOND
1 1 2 ar
2 1 6 ar
3 1 7 1
4 2 3 ar
5 2 22 1
6 3 4 ar
7 3 8 1
8 4 5 ar
9 5 6 ar
10 5 23 1
11 6 24 1
12 7 25 1
13 8 26 1
14 4 9 1
15 9 10 2
16 9 13 1
17 10 11 1
18 11 27 1
19 11 12 1
20 12 13 1
21 12 20 2
22 13 14 1
23 14 15 ar
24 14 19 ar
25 15 16 ar
26 15 21 1
27 16 17 ar
28 16 28 1
29 17 18 ar
30 17 29 1
31 18 30 1
32 18 19 ar
33 19 31 1
@<TRIPOS>SUBSTRUCTURE
1	6G7301	1	GROUP	1 A	6G7
