# created with PyMOL 3.1.6.1
@<TRIPOS>MOLECULE
6DL
31 33 1                 
SMALL
USER_CHARGES
@<TRIPOS>ATOM
1	  C1	1.576	12.231	27.400	C.ar	1	6DL301	0.000	
2	  C2	2.812	11.694	27.060	C.ar	1	6DL301	0.000	
3	  C3	2.855	10.841	25.966	C.ar	1	6DL301	0.000	
4	  C4	1.700	10.561	25.206	C.ar	1	6DL301	0.000	
5	  C5	0.464	11.071	25.606	C.ar	1	6DL301	0.000	
6	  C6	0.437	11.934	26.676	C.ar	1	6DL301	0.000	
7	  O7	1.430	13.036	28.472	O.3	1	6DL301	0.000	
8	  O8	4.048	10.339	25.580	O.3	1	6DL301	0.000	
9	  C9	1.767	9.608	24.086	C.2	1	6DL301	0.000	
10	 N10	2.530	9.788	23.046	N.2	1	6DL301	0.000	
11	 N11	2.383	8.659	22.236	N.am	1	6DL301	0.000	
12	 C12	1.540	7.797	22.827	C.2	1	6DL301	0.000	
13	 N13	1.144	8.359	23.990	N.am	1	6DL301	0.000	
14	 C14	0.221	7.761	24.882	C.ar	1	6DL301	0.000	
15	 C15	-1.092	7.481	24.463	C.ar	1	6DL301	0.000	
16	 C16	-2.001	6.862	25.311	C.ar	1	6DL301	0.000	
17	 C17	-1.575	6.502	26.584	C.ar	1	6DL301	0.000	
18	 C18	-0.273	6.752	27.013	C.ar	1	6DL301	0.000	
19	 C19	0.630	7.364	26.156	C.ar	1	6DL301	0.000	
20	 O20	1.211	6.700	22.403	O.2	1	6DL301	0.000	
21	  BR	-1.152	12.835	27.095	BR	1	6DL301	0.000	
22	 F21	-1.504	7.823	23.229	 F	1	6DL301	0.000	
23	 H01	3.710	11.933	27.629	 H	1	6DL301	0.000	
24	 H02	-0.453	10.793	25.086	 H	1	6DL301	0.000	
25	 H03	1.717	13.924	28.247	 H	1	6DL301	0.000	
26	 H04	4.302	10.727	24.740	 H	1	6DL301	0.000	
27	 H05	2.839	8.514	21.346	 H	1	6DL301	0.000	
28	 H06	-3.022	6.664	24.987	 H	1	6DL301	0.000	
29	 H07	-2.275	6.013	27.262	 H	1	6DL301	0.000	
30	 H08	0.035	6.467	28.019	 H	1	6DL301	0.000	
31	 H09	1.658	7.535	26.477	 H	1	6DL301	0.000	
@<TRIPOS>BOND
1 1 2 ar
2 1 6 ar
3 1 7 1
4 2 3 ar
5 2 23 1
6 3 4 ar
7 3 8 1
8 4 5 ar
9 5 6 ar
10 5 24 1
11 6 21 1
12 7 25 1
13 8 26 1
14 4 9 1
15 9 10 2
16 9 13 1
17 10 11 1
18 11 27 1
19 11 12 1
20 12 13 1
21 12 20 2
22 13 14 1
23 14 15 ar
24 14 19 ar
25 15 16 ar
26 15 22 1
27 16 17 ar
28 16 28 1
29 17 18 ar
30 17 29 1
31 18 30 1
32 18 19 ar
33 19 31 1
@<TRIPOS>SUBSTRUCTURE
1	6DL301	1	GROUP	1 A	6DL
