    # Name: 6DL
# Created by ModelServer 0.9.12

# model_server_result.job_id: YYzmPw_nJdCfrOScxCsQgQ
# model_server_result.datetime_utc: 2026-02-20 22:05:05
# model_server_result.server_version: 0.9.12
# model_server_result.query_name: ligand
# model_server_result.source_id: pdb-bcif
# model_server_result.entry_id: 5j2x

# model_server_params.name: atom_site
# model_server_params.value: {"label_asym_id":"B","auth_seq_id":301}

# model_server_stats.io_time_ms: 8
# model_server_stats.parse_time_ms: 12
# model_server_stats.create_model_time_ms: 4
# model_server_stats.query_time_ms: 385
# model_server_stats.encode_time_ms: 1
# model_server_stats.element_count: 44

@<TRIPOS>MOLECULE
6DL
22 24 1
****
****

@<TRIPOS>ATOM
1 C1 1.576 12.231 27.400 C.ar 1 6DL 0.000
2 C2 2.812 11.694 27.060 C.ar 1 6DL 0.000
3 C3 2.855 10.841 25.966 C.ar 1 6DL 0.000
4 C9 1.767 9.608 24.086 C.2 1 6DL 0.000
5 C12 1.540 7.797 22.827 C.2 1 6DL 0.000
6 C14 0.221 7.761 24.882 C.ar 1 6DL 0.000
7 C15 -1.092 7.481 24.463 C.ar 1 6DL 0.000
8 C16 -2.001 6.862 25.311 C.ar 1 6DL 0.000
9 C19 0.630 7.364 26.156 C.ar 1 6DL 0.000
10 C4 1.700 10.561 25.206 C.ar 1 6DL 0.000
11 C5 0.464 11.071 25.606 C.ar 1 6DL 0.000
12 C6 0.437 11.934 26.676 C.ar 1 6DL 0.000
13 O7 1.430 13.036 28.472 O.3 1 6DL 0.000
14 O8 4.048 10.339 25.580 O.3 1 6DL 0.000
15 N10 2.530 9.788 23.046 N.2 1 6DL 0.000
16 N11 2.383 8.659 22.236 N.am 1 6DL 0.000
17 N13 1.144 8.359 23.990 N.am 1 6DL 0.000
18 C17 -1.575 6.502 26.584 C.ar 1 6DL 0.000
19 C18 -0.273 6.752 27.013 C.ar 1 6DL 0.000
20 O20 1.211 6.700 22.403 O.2 1 6DL 0.000
21 F21 -1.504 7.823 23.229 F 1 6DL 0.000
22 BR -1.152 12.835 27.095 BR 1 6DL 0.000
@<TRIPOS>BOND
1 1 12 ar
2 1 2 ar
3 1 13 1
4 2 3 ar
5 3 10 ar
6 3 14 1
7 4 15 2
8 4 17 1
9 4 10 1
10 5 16 1
11 5 20 2
12 5 17 1
13 6 17 1
14 6 7 ar
15 6 9 ar
16 7 21 1
17 7 8 ar
18 8 18 ar
19 9 19 ar
20 10 11 ar
21 11 12 ar
22 12 22 1
23 15 16 1
24 18 19 ar
@<TRIPOS>SUBSTRUCTURE
1 6DL 1
