6DL
  PyMOL3.1          3D                             0

 31 33  0  0  0  0  0  0  0  0999 V2000
    1.5760   12.2310   27.4000 C   0  0  0  0  0  0  0  0  0  0  0  0
    2.8120   11.6940   27.0600 C   0  0  0  0  0  0  0  0  0  0  0  0
    2.8550   10.8410   25.9660 C   0  0  0  0  0  0  0  0  0  0  0  0
    1.7000   10.5610   25.2060 C   0  0  0  0  0  0  0  0  0  0  0  0
    0.4640   11.0710   25.6060 C   0  0  0  0  0  0  0  0  0  0  0  0
    0.4370   11.9340   26.6760 C   0  0  0  0  0  0  0  0  0  0  0  0
    1.4300   13.0360   28.4720 O   0  0  0  0  0  0  0  0  0  0  0  0
    4.0480   10.3390   25.5800 O   0  0  0  0  0  0  0  0  0  0  0  0
    1.7670    9.6080   24.0860 C   0  0  0  0  0  0  0  0  0  0  0  0
    2.5300    9.7880   23.0460 N   0  0  0  0  0  0  0  0  0  0  0  0
    2.3830    8.6590   22.2360 N   0  0  0  0  0  0  0  0  0  0  0  0
    1.5400    7.7970   22.8270 C   0  0  0  0  0  0  0  0  0  0  0  0
    1.1440    8.3590   23.9900 N   0  0  0  0  0  0  0  0  0  0  0  0
    0.2210    7.7610   24.8820 C   0  0  0  0  0  0  0  0  0  0  0  0
   -1.0920    7.4810   24.4630 C   0  0  0  0  0  0  0  0  0  0  0  0
   -2.0010    6.8620   25.3110 C   0  0  0  0  0  0  0  0  0  0  0  0
   -1.5750    6.5020   26.5840 C   0  0  0  0  0  0  0  0  0  0  0  0
   -0.2730    6.7520   27.0130 C   0  0  0  0  0  0  0  0  0  0  0  0
    0.6300    7.3640   26.1560 C   0  0  0  0  0  0  0  0  0  0  0  0
    1.2110    6.7000   22.4030 O   0  0  0  0  0  0  0  0  0  0  0  0
   -1.1520   12.8350   27.0950 Br  0  0  0  0  0  0  0  0  0  0  0  0
   -1.5040    7.8230   23.2290 F   0  0  0  0  0  0  0  0  0  0  0  0
    3.7105   11.9329   27.6290 H   0  0  0  0  0  0  0  0  0  0  0  0
   -0.4526   10.7934   25.0856 H   0  0  0  0  0  0  0  0  0  0  0  0
    1.7171   13.9241   28.2474 H   0  0  0  0  0  0  0  0  0  0  0  0
    4.3024   10.7273   24.7397 H   0  0  0  0  0  0  0  0  0  0  0  0
    2.8388    8.5142   21.3464 H   0  0  0  0  0  0  0  0  0  0  0  0
   -3.0225    6.6636   24.9865 H   0  0  0  0  0  0  0  0  0  0  0  0
   -2.2749    6.0133   27.2618 H   0  0  0  0  0  0  0  0  0  0  0  0
    0.0351    6.4675   28.0191 H   0  0  0  0  0  0  0  0  0  0  0  0
    1.6576    7.5346   26.4771 H   0  0  0  0  0  0  0  0  0  0  0  0
  1  2  4  0  0  0  0
  1  6  4  0  0  0  0
  1  7  1  0  0  0  0
  2  3  4  0  0  0  0
  2 23  1  0  0  0  0
  3  4  4  0  0  0  0
  3  8  1  0  0  0  0
  4  5  4  0  0  0  0
  5  6  4  0  0  0  0
  5 24  1  0  0  0  0
  6 21  1  0  0  0  0
  7 25  1  0  0  0  0
  8 26  1  0  0  0  0
  4  9  1  0  0  0  0
  9 10  2  0  0  0  0
  9 13  1  0  0  0  0
 10 11  1  0  0  0  0
 11 27  1  0  0  0  0
 11 12  1  0  0  0  0
 12 13  1  0  0  0  0
 12 20  2  0  0  0  0
 13 14  1  0  0  0  0
 14 15  4  0  0  0  0
 14 19  4  0  0  0  0
 15 16  4  0  0  0  0
 15 22  1  0  0  0  0
 16 17  4  0  0  0  0
 16 28  1  0  0  0  0
 17 18  4  0  0  0  0
 17 29  1  0  0  0  0
 18 30  1  0  0  0  0
 18 19  4  0  0  0  0
 19 31  1  0  0  0  0
M  END
$$$$
