# created with PyMOL 3.1.6.1
@<TRIPOS>MOLECULE
5J2X
44 48 1                 
SMALL
USER_CHARGES
@<TRIPOS>ATOM
1	  C1	1.576	12.231	27.400	C.2	1	6DL301	0.000	
2	  C1	1.347	12.006	27.212	C.2	1	6DL301	0.000	
3	  C2	2.812	11.694	27.060	C.2	1	6DL301	0.000	
4	  C2	2.589	11.662	26.723	C.2	1	6DL301	0.000	
5	  C3	2.855	10.841	25.966	C.2	1	6DL301	0.000	
6	  C3	2.675	10.824	25.621	C.2	1	6DL301	0.000	
7	  C4	1.700	10.561	25.206	C.2	1	6DL301	0.000	
8	  C4	1.521	10.435	24.933	C.2	1	6DL301	0.000	
9	  C5	0.464	11.071	25.606	C.2	1	6DL301	0.000	
10	  C5	0.277	10.819	25.420	C.2	1	6DL301	0.000	
11	  C6	0.437	11.934	26.676	C.2	1	6DL301	0.000	
12	  C6	0.220	11.637	26.516	C.2	1	6DL301	0.000	
13	  O7	1.430	13.036	28.472	O.3	1	6DL301	0.000	
14	  O7	1.235	12.766	28.337	O.3	1	6DL301	0.000	
15	  O8	4.048	10.339	25.580	O.3	1	6DL301	0.000	
16	  O8	3.897	10.538	25.139	O.3	1	6DL301	0.000	
17	  C9	1.767	9.608	24.086	C.2	1	6DL301	0.000	
18	  C9	1.560	9.474	23.821	C.2	1	6DL301	0.000	
19	 N10	2.530	9.788	23.046	N.2	1	6DL301	0.000	
20	 N10	2.267	9.601	22.732	N.2	1	6DL301	0.000	
21	 N11	2.383	8.659	22.236	N.pl3	1	6DL301	0.000	
22	 N11	2.044	8.456	21.960	N.pl3	1	6DL301	0.000	
23	 C12	1.540	7.797	22.827	C.2	1	6DL301	0.000	
24	 C12	1.219	7.631	22.625	C.2	1	6DL301	0.000	
25	 N13	1.144	8.359	23.990	N.pl3	1	6DL301	0.000	
26	 N13	0.906	8.226	23.796	N.pl3	1	6DL301	0.000	
27	 C14	0.221	7.761	24.882	C.2	1	6DL301	0.000	
28	 C14	0.077	7.659	24.811	C.2	1	6DL301	0.000	
29	 C15	-1.092	7.481	24.463	C.2	1	6DL301	0.000	
30	 C15	0.624	6.736	25.690	C.2	1	6DL301	0.000	
31	 C16	-2.001	6.862	25.311	C.2	1	6DL301	0.000	
32	 C16	-0.135	6.147	26.702	C.2	1	6DL301	0.000	
33	 C17	-1.575	6.502	26.584	C.2	1	6DL301	0.000	
34	 C17	-1.450	6.552	26.897	C.2	1	6DL301	0.000	
35	 C18	-0.273	6.752	27.013	C.2	1	6DL301	0.000	
36	 C18	-2.014	7.503	26.058	C.2	1	6DL301	0.000	
37	 C19	0.630	7.364	26.156	C.2	1	6DL301	0.000	
38	 C19	-1.250	8.032	25.018	C.2	1	6DL301	0.000	
39	 O20	1.211	6.700	22.403	O.2	1	6DL301	0.000	
40	 O20	0.839	6.543	22.233	O.2	1	6DL301	0.000	
41	  BR	-1.152	12.835	27.095	Br	1	6DL301	0.000	
42	  BR	-1.446	12.377	26.909	Br	1	6DL301	0.000	
43	 F21	-1.504	7.823	23.229	 F	1	6DL301	0.000	
44	 F21	1.876	6.292	25.443	 F	1	6DL301	0.000	
@<TRIPOS>BOND
1 1 3 1
2 2 4 1
3 3 5 2
4 4 6 2
5 5 7 1
6 6 8 1
7 7 9 2
8 8 10 2
9 1 11 2
10 9 11 1
11 2 12 2
12 10 12 1
13 1 13 1
14 2 14 1
15 5 15 1
16 6 16 1
17 7 17 1
18 8 18 1
19 17 19 2
20 18 20 2
21 19 21 1
22 20 22 1
23 21 23 1
24 22 24 1
25 17 25 1
26 23 25 1
27 18 26 1
28 24 26 1
29 25 27 1
30 26 28 1
31 27 29 2
32 28 30 2
33 29 31 1
34 30 32 1
35 31 33 2
36 32 34 2
37 33 35 1
38 34 36 1
39 27 37 1
40 35 37 2
41 28 38 1
42 36 38 2
43 23 39 2
44 24 40 2
45 11 41 1
46 12 42 1
47 29 43 1
48 30 44 1
@<TRIPOS>SUBSTRUCTURE
1	6DL301	1	GROUP	1 A	6DL
