# created with PyMOL 3.1.6.1
@<TRIPOS>MOLECULE
ligand_obj
45 47 1                 
SMALL
USER_CHARGES
@<TRIPOS>ATOM
1	CL25	33.584	12.418	22.440	Cl	1	LIG1224	0.000	
2	  N1	30.419	9.073	27.852	N.2	1	LIG1224	0.000	
3	  C2	31.323	8.196	27.409	C.2	1	LIG1224	0.000	
4	  C3	31.657	8.571	26.131	C.2	1	LIG1224	0.000	
5	  C4	30.887	9.746	25.892	C.2	1	LIG1224	0.000	
6	  N5	30.147	9.948	26.981	N.pl3	1	LIG1224	0.000	
7	  C6	30.896	10.509	24.724	C.2	1	LIG1224	0.000	
8	  C7	32.579	7.936	25.264	C.2	1	LIG1224	0.000	
9	  C8	31.844	7.008	28.228	C.2	1	LIG1224	0.000	
10	  O9	32.384	6.048	27.701	O.2	1	LIG1224	0.000	
11	 N10	31.673	7.141	29.548	N.pl3	1	LIG1224	0.000	
12	 C11	32.085	11.007	24.224	C.2	1	LIG1224	0.000	
13	 C12	32.098	11.791	23.059	C.2	1	LIG1224	0.000	
14	 C13	30.909	12.092	22.412	C.2	1	LIG1224	0.000	
15	 C14	29.702	11.595	22.923	C.2	1	LIG1224	0.000	
16	 C15	29.705	10.836	24.092	C.2	1	LIG1224	0.000	
17	 C16	33.895	7.753	25.673	C.2	1	LIG1224	0.000	
18	 C17	34.820	7.125	24.832	C.2	1	LIG1224	0.000	
19	 C18	34.474	6.682	23.562	C.2	1	LIG1224	0.000	
20	 C19	33.140	6.855	23.124	C.2	1	LIG1224	0.000	
21	 C20	32.193	7.471	23.989	C.2	1	LIG1224	0.000	
22	 O21	35.470	6.078	22.799	O.3	1	LIG1224	0.000	
23	 C22	35.030	5.521	21.559	C.3	1	LIG1224	0.000	
24	 O23	28.547	10.388	24.587	O.3	1	LIG1224	0.000	
25	 O24	30.918	12.828	21.274	O.3	1	LIG1224	0.000	
26	 C26	32.046	6.120	30.566	C.3	1	LIG1224	0.000	
27	 C27	33.459	5.572	30.357	C.3	1	LIG1224	0.000	
28	 H01	29.470	10.689	27.094	 H	1	LIG1224	0.000	
29	 H02	31.259	8.000	29.880	 H	1	LIG1224	0.000	
30	 H03	33.021	10.789	24.739	 H	1	LIG1224	0.000	
31	 H04	28.764	11.801	22.408	 H	1	LIG1224	0.000	
32	 H05	34.209	8.102	26.657	 H	1	LIG1224	0.000	
33	 H06	35.841	6.979	25.184	 H	1	LIG1224	0.000	
34	 H07	32.840	6.519	22.131	 H	1	LIG1224	0.000	
35	 H08	31.159	7.585	23.663	 H	1	LIG1224	0.000	
36	 H09	34.154	6.066	21.207	 H	1	LIG1224	0.000	
37	 H10	35.828	5.601	20.821	 H	1	LIG1224	0.000	
38	 H11	34.771	4.472	21.703	 H	1	LIG1224	0.000	
39	 H12	28.306	10.907	25.357	 H	1	LIG1224	0.000	
40	 H13	30.026	13.121	21.075	 H	1	LIG1224	0.000	
41	 H14	31.350	5.286	30.468	 H	1	LIG1224	0.000	
42	 H15	31.990	6.575	31.555	 H	1	LIG1224	0.000	
43	 H16	34.144	6.061	31.050	 H	1	LIG1224	0.000	
44	 H17	33.463	4.498	30.540	 H	1	LIG1224	0.000	
45	 H18	33.777	5.768	29.333	 H	1	LIG1224	0.000	
@<TRIPOS>BOND
1 2 3 2
2 3 4 1
3 4 5 2
4 2 6 1
5 5 6 1
6 6 28 1
7 5 7 1
8 4 8 1
9 3 9 1
10 9 10 2
11 9 11 1
12 11 29 1
13 7 12 2
14 12 30 1
15 1 13 1
16 12 13 1
17 13 14 2
18 14 15 1
19 15 31 1
20 7 16 1
21 15 16 2
22 8 17 1
23 17 32 1
24 17 18 2
25 18 33 1
26 18 19 1
27 19 20 2
28 20 34 1
29 8 21 2
30 20 21 1
31 21 35 1
32 19 22 1
33 22 23 1
34 23 36 1
35 23 37 1
36 23 38 1
37 16 24 1
38 24 39 1
39 14 25 1
40 25 40 1
41 11 26 1
42 26 41 1
43 26 42 1
44 26 27 1
45 27 43 1
46 27 44 1
47 27 45 1
@<TRIPOS>SUBSTRUCTURE
1	LIG1224	1	GROUP	1 A	LIG
