6GW
  PyMOL3.1          3D                             0

 51 54  0  0  0  0  0  0  0  0999 V2000
  -33.3160   -7.5230   24.7270 C   0  0  0  0  0  0  0  0  0  0  0  0
  -32.7820  -12.3650   23.0140 C   0  0  0  0  0  0  0  0  0  0  0  0
  -31.5120  -12.0450   23.5220 C   0  0  0  0  0  0  0  0  0  0  0  0
  -31.4150  -11.3170   24.7110 C   0  0  0  0  0  0  0  0  0  0  0  0
  -32.5720  -10.9120   25.4060 C   0  0  0  0  0  0  0  0  0  0  0  0
  -33.8230  -11.2360   24.8900 C   0  0  0  0  0  0  0  0  0  0  0  0
  -33.9430  -11.9340   23.6860 C   0  0  0  0  0  0  0  0  0  0  0  0
  -32.5030  -10.0530   26.6170 C   0  0  0  0  0  0  0  0  0  0  0  0
  -31.8170  -10.2850   27.7080 N   0  0  0  0  0  0  0  0  0  0  0  0
  -33.1720   -8.8380   26.7560 N   0  0  0  0  0  0  0  0  0  0  0  0
  -30.2020  -11.0240   25.2310 O   0  0  0  0  0  0  0  0  0  0  0  0
  -32.8970  -13.0350   21.8490 O   0  0  0  0  0  0  0  0  0  0  0  0
  -32.0550   -9.2300   28.5860 N   0  0  0  0  0  0  0  0  0  0  0  0
  -32.8810   -8.3560   27.9790 C   0  0  0  0  0  0  0  0  0  0  0  0
  -33.3010   -7.3140   28.4450 O   0  0  0  0  0  0  0  0  0  0  0  0
  -33.9710   -8.1790   25.7790 C   0  0  0  0  0  0  0  0  0  0  0  0
  -35.3790   -8.1760   25.8120 C   0  0  0  0  0  0  0  0  0  0  0  0
  -36.1090   -7.5410   24.7990 C   0  0  0  0  0  0  0  0  0  0  0  0
  -35.4390   -6.8920   23.7630 C   0  0  0  0  0  0  0  0  0  0  0  0
  -36.1470   -8.8510   26.9160 C   0  0  0  0  0  0  0  0  0  0  0  0
  -35.3290  -12.3140   23.3230 C   0  0  0  0  0  0  0  0  0  0  0  0
  -35.8020  -13.5390   23.7020 N   0  0  0  0  0  0  0  0  0  0  0  0
  -36.0620  -11.4870   22.8190 O   0  0  0  0  0  0  0  0  0  0  0  0
  -37.2190  -13.9100   23.5240 C   0  0  0  0  0  0  0  0  0  0  0  0
  -37.9350  -14.0850   24.8410 C   0  0  0  0  0  0  0  0  0  0  0  0
  -34.0430   -6.8890   23.7220 C   0  0  0  0  0  0  0  0  0  0  0  0
  -34.9180  -14.5340   24.3340 C   0  0  0  0  0  0  0  0  0  0  0  0
  -38.1140  -12.8170   26.0430 S   0  0  0  0  0  0  0  0  0  0  0  0
  -38.9970  -13.9030   27.1130 C   0  0  0  0  0  0  0  0  0  0  0  0
  -39.0900  -15.1110   26.5350 C   0  0  0  0  0  0  0  0  0  0  0  0
  -38.5120  -15.2110   25.2780 C   0  0  0  0  0  0  0  0  0  0  0  0
  -32.2266   -7.5090   24.6953 H   0  0  0  0  0  0  0  0  0  0  0  0
  -30.6120  -12.3611   22.9946 H   0  0  0  0  0  0  0  0  0  0  0  0
  -34.7213  -10.9412   25.4325 H   0  0  0  0  0  0  0  0  0  0  0  0
  -29.8682  -11.7837   25.7137 H   0  0  0  0  0  0  0  0  0  0  0  0
  -33.3261  -13.8793   22.0058 H   0  0  0  0  0  0  0  0  0  0  0  0
  -31.6741   -9.1366   29.5167 H   0  0  0  0  0  0  0  0  0  0  0  0
  -37.1987   -7.5543   24.8208 H   0  0  0  0  0  0  0  0  0  0  0  0
  -36.0065   -6.3853   22.9824 H   0  0  0  0  0  0  0  0  0  0  0  0
  -37.1360   -9.1295   26.5521 H   0  0  0  0  0  0  0  0  0  0  0  0
  -35.6131   -9.7457   27.2364 H   0  0  0  0  0  0  0  0  0  0  0  0
  -36.2498   -8.1672   27.7586 H   0  0  0  0  0  0  0  0  0  0  0  0
  -37.2501  -14.8644   22.9984 H   0  0  0  0  0  0  0  0  0  0  0  0
  -37.7183  -13.1264   22.9542 H   0  0  0  0  0  0  0  0  0  0  0  0
  -33.5226   -6.3908   22.9040 H   0  0  0  0  0  0  0  0  0  0  0  0
  -34.0107  -14.0423   24.6848 H   0  0  0  0  0  0  0  0  0  0  0  0
  -35.4318  -14.9928   25.1788 H   0  0  0  0  0  0  0  0  0  0  0  0
  -34.6561  -15.3023   23.6065 H   0  0  0  0  0  0  0  0  0  0  0  0
  -39.4031  -13.6365   28.0888 H   0  0  0  0  0  0  0  0  0  0  0  0
  -39.5845  -15.9533   27.0189 H   0  0  0  0  0  0  0  0  0  0  0  0
  -38.5265  -16.1312   24.6939 H   0  0  0  0  0  0  0  0  0  0  0  0
  1 16  4  0  0  0  0
  1 26  4  0  0  0  0
  1 32  1  0  0  0  0
  2  3  4  0  0  0  0
  2  7  4  0  0  0  0
  2 12  1  0  0  0  0
  3  4  4  0  0  0  0
  3 33  1  0  0  0  0
  4  5  4  0  0  0  0
  4 11  1  0  0  0  0
  5  6  4  0  0  0  0
  6 34  1  0  0  0  0
  6  7  4  0  0  0  0
  7 21  1  0  0  0  0
  5  8  1  0  0  0  0
  8  9  2  0  0  0  0
  8 10  1  0  0  0  0
  9 13  1  0  0  0  0
 11 35  1  0  0  0  0
 12 36  1  0  0  0  0
 13 37  1  0  0  0  0
 10 14  1  0  0  0  0
 13 14  1  0  0  0  0
 14 15  2  0  0  0  0
 10 16  1  0  0  0  0
 16 17  4  0  0  0  0
 17 18  4  0  0  0  0
 18 38  1  0  0  0  0
 18 19  4  0  0  0  0
 19 26  4  0  0  0  0
 19 39  1  0  0  0  0
 17 20  1  0  0  0  0
 20 40  1  0  0  0  0
 20 41  1  0  0  0  0
 20 42  1  0  0  0  0
 21 22  1  0  0  0  0
 21 23  2  0  0  0  0
 22 24  1  0  0  0  0
 24 25  1  0  0  0  0
 24 43  1  0  0  0  0
 24 44  1  0  0  0  0
 25 28  4  0  0  0  0
 26 45  1  0  0  0  0
 22 27  1  0  0  0  0
 27 46  1  0  0  0  0
 27 47  1  0  0  0  0
 27 48  1  0  0  0  0
 28 29  4  0  0  0  0
 29 49  1  0  0  0  0
 29 30  4  0  0  0  0
 30 31  4  0  0  0  0
 30 50  1  0  0  0  0
 25 31  4  0  0  0  0
 31 51  1  0  0  0  0
M  END
$$$$
