# created with PyMOL 3.1.6.1
@<TRIPOS>MOLECULE
6GW
51 54 1                 
SMALL
USER_CHARGES
@<TRIPOS>ATOM
1	  C1	-33.316	-7.523	24.727	C.ar	1	6GW301	0.000	
2	  C2	-32.782	-12.365	23.014	C.ar	1	6GW301	0.000	
3	  C3	-31.512	-12.045	23.522	C.ar	1	6GW301	0.000	
4	  C4	-31.415	-11.317	24.711	C.ar	1	6GW301	0.000	
5	  C5	-32.572	-10.912	25.406	C.ar	1	6GW301	0.000	
6	  C6	-33.823	-11.236	24.890	C.ar	1	6GW301	0.000	
7	  C7	-33.943	-11.934	23.686	C.ar	1	6GW301	0.000	
8	  C8	-32.503	-10.053	26.617	C.2	1	6GW301	0.000	
9	  N9	-31.817	-10.285	27.708	N.2	1	6GW301	0.000	
10	 N10	-33.172	-8.838	26.756	N.am	1	6GW301	0.000	
11	 O11	-30.202	-11.024	25.231	O.3	1	6GW301	0.000	
12	 O12	-32.897	-13.035	21.849	O.3	1	6GW301	0.000	
13	 N13	-32.055	-9.230	28.586	N.am	1	6GW301	0.000	
14	 C14	-32.881	-8.356	27.979	C.2	1	6GW301	0.000	
15	 O15	-33.301	-7.314	28.445	O.2	1	6GW301	0.000	
16	 C16	-33.971	-8.179	25.779	C.ar	1	6GW301	0.000	
17	 C17	-35.379	-8.176	25.812	C.ar	1	6GW301	0.000	
18	 C18	-36.109	-7.541	24.799	C.ar	1	6GW301	0.000	
19	 C19	-35.439	-6.892	23.763	C.ar	1	6GW301	0.000	
20	 C20	-36.147	-8.851	26.916	C.3	1	6GW301	0.000	
21	 C21	-35.329	-12.314	23.323	C.2	1	6GW301	0.000	
22	 N22	-35.802	-13.539	23.702	N.am	1	6GW301	0.000	
23	 O23	-36.062	-11.487	22.819	O.2	1	6GW301	0.000	
24	 C24	-37.219	-13.910	23.524	C.3	1	6GW301	0.000	
25	 C25	-37.935	-14.085	24.841	C.ar	1	6GW301	0.000	
26	 C26	-34.043	-6.889	23.722	C.ar	1	6GW301	0.000	
27	 C27	-34.918	-14.534	24.334	C.3	1	6GW301	0.000	
28	 S28	-38.114	-12.817	26.043	S.3	1	6GW301	0.000	
29	 C29	-38.997	-13.903	27.113	C.ar	1	6GW301	0.000	
30	 C30	-39.090	-15.111	26.535	C.ar	1	6GW301	0.000	
31	 C31	-38.512	-15.211	25.278	C.ar	1	6GW301	0.000	
32	 H01	-32.227	-7.509	24.695	 H	1	6GW301	0.000	
33	 H02	-30.612	-12.361	22.995	 H	1	6GW301	0.000	
34	 H03	-34.721	-10.941	25.433	 H	1	6GW301	0.000	
35	 H04	-29.868	-11.784	25.714	 H	1	6GW301	0.000	
36	 H05	-33.326	-13.879	22.006	 H	1	6GW301	0.000	
37	 H06	-31.674	-9.137	29.517	 H	1	6GW301	0.000	
38	 H07	-37.199	-7.554	24.821	 H	1	6GW301	0.000	
39	 H08	-36.006	-6.385	22.982	 H	1	6GW301	0.000	
40	 H09	-37.136	-9.130	26.552	 H	1	6GW301	0.000	
41	 H10	-35.613	-9.746	27.236	 H	1	6GW301	0.000	
42	 H11	-36.250	-8.167	27.759	 H	1	6GW301	0.000	
43	 H12	-37.250	-14.864	22.998	 H	1	6GW301	0.000	
44	 H13	-37.718	-13.126	22.954	 H	1	6GW301	0.000	
45	 H14	-33.523	-6.391	22.904	 H	1	6GW301	0.000	
46	 H15	-34.011	-14.042	24.685	 H	1	6GW301	0.000	
47	 H16	-35.432	-14.993	25.179	 H	1	6GW301	0.000	
48	 H17	-34.656	-15.302	23.607	 H	1	6GW301	0.000	
49	 H18	-39.403	-13.636	28.089	 H	1	6GW301	0.000	
50	 H19	-39.584	-15.953	27.019	 H	1	6GW301	0.000	
51	 H20	-38.526	-16.131	24.694	 H	1	6GW301	0.000	
@<TRIPOS>BOND
1 1 16 ar
2 1 26 ar
3 1 32 1
4 2 3 ar
5 2 7 ar
6 2 12 1
7 3 4 ar
8 3 33 1
9 4 5 ar
10 4 11 1
11 5 6 ar
12 6 34 1
13 6 7 ar
14 7 21 1
15 5 8 1
16 8 9 2
17 8 10 1
18 9 13 1
19 11 35 1
20 12 36 1
21 13 37 1
22 10 14 1
23 13 14 1
24 14 15 2
25 10 16 1
26 16 17 ar
27 17 18 ar
28 18 38 1
29 18 19 ar
30 19 26 ar
31 19 39 1
32 17 20 1
33 20 40 1
34 20 41 1
35 20 42 1
36 21 22 1
37 21 23 2
38 22 24 1
39 24 25 1
40 24 43 1
41 24 44 1
42 25 28 ar
43 26 45 1
44 22 27 1
45 27 46 1
46 27 47 1
47 27 48 1
48 28 29 ar
49 29 49 1
50 29 30 ar
51 30 31 ar
52 30 50 1
53 25 31 ar
54 31 51 1
@<TRIPOS>SUBSTRUCTURE
1	6GW301	1	GROUP	1 A	6GW
