# created with PyMOL 3.1.6.1
@<TRIPOS>MOLECULE
ligand_obj
44 46 1                 
SMALL
USER_CHARGES
@<TRIPOS>ATOM
1	CL25	33.548	12.452	22.702	Cl	1	2GG1228	0.000	
2	  N1	30.093	8.892	28.004	N.2	1	2GG1228	0.000	
3	  C2	31.041	8.090	27.512	C.2	1	2GG1228	0.000	
4	  C3	31.468	8.517	26.237	C.2	1	2GG1228	0.000	
5	  O3	29.885	9.874	27.047	O.3	1	2GG1228	0.000	
6	  C4	30.704	9.670	25.984	C.2	1	2GG1228	0.000	
7	  C6	30.722	10.492	24.839	C.2	1	2GG1228	0.000	
8	  C7	32.448	7.914	25.378	C.2	1	2GG1228	0.000	
9	  C8	31.565	6.908	28.296	C.2	1	2GG1228	0.000	
10	  O9	32.052	5.928	27.738	O.2	1	2GG1228	0.000	
11	 N10	31.537	7.058	29.633	N.pl3	1	2GG1228	0.000	
12	 C11	31.945	11.001	24.391	C.2	1	2GG1228	0.000	
13	 C12	32.016	11.813	23.258	C.2	1	2GG1228	0.000	
14	 C13	30.830	12.131	22.581	C.2	1	2GG1228	0.000	
15	 C14	29.599	11.624	23.002	C.2	1	2GG1228	0.000	
16	 C15	29.545	10.840	24.163	C.2	1	2GG1228	0.000	
17	 C16	33.803	7.919	25.724	C.2	1	2GG1228	0.000	
18	 C17	34.773	7.351	24.890	C.2	1	2GG1228	0.000	
19	 C18	34.418	6.776	23.649	C.2	1	2GG1228	0.000	
20	 C19	33.059	6.753	23.268	C.2	1	2GG1228	0.000	
21	 C20	32.094	7.332	24.129	C.2	1	2GG1228	0.000	
22	 O21	35.435	6.238	22.903	O.3	1	2GG1228	0.000	
23	 C22	35.110	5.610	21.624	C.3	1	2GG1228	0.000	
24	 O23	28.338	10.353	24.562	O.3	1	2GG1228	0.000	
25	 O24	30.878	12.874	21.471	O.3	1	2GG1228	0.000	
26	 C26	32.011	5.986	30.539	C.3	1	2GG1228	0.000	
27	 C27	33.492	6.216	30.890	C.3	1	2GG1228	0.000	
28	 H01	31.186	7.919	30.027	 H	1	2GG1228	0.000	
29	 H02	32.858	10.760	24.936	 H	1	2GG1228	0.000	
30	 H03	28.692	11.835	22.435	 H	1	2GG1228	0.000	
31	 H04	34.111	8.376	26.665	 H	1	2GG1228	0.000	
32	 H05	35.817	7.352	25.202	 H	1	2GG1228	0.000	
33	 H06	32.756	6.297	22.326	 H	1	2GG1228	0.000	
34	 H07	31.047	7.331	23.825	 H	1	2GG1228	0.000	
35	 H08	34.278	6.140	21.161	 H	1	2GG1228	0.000	
36	 H09	35.978	5.653	20.966	 H	1	2GG1228	0.000	
37	 H10	34.830	4.570	21.790	 H	1	2GG1228	0.000	
38	 H11	28.084	10.766	25.390	 H	1	2GG1228	0.000	
39	 H12	30.197	13.550	21.508	 H	1	2GG1228	0.000	
40	 H13	31.905	5.022	30.041	 H	1	2GG1228	0.000	
41	 H14	31.416	5.994	31.453	 H	1	2GG1228	0.000	
42	 H15	34.056	6.408	29.977	 H	1	2GG1228	0.000	
43	 H16	33.579	7.074	31.557	 H	1	2GG1228	0.000	
44	 H17	33.891	5.330	31.383	 H	1	2GG1228	0.000	
@<TRIPOS>BOND
1 2 3 2
2 3 4 1
3 2 5 1
4 4 6 2
5 5 6 1
6 6 7 1
7 4 8 1
8 3 9 1
9 9 10 2
10 9 11 1
11 11 28 1
12 7 12 1
13 12 29 1
14 1 13 1
15 12 13 2
16 13 14 1
17 14 15 2
18 15 30 1
19 7 16 2
20 15 16 1
21 8 17 2
22 17 31 1
23 17 18 1
24 18 32 1
25 18 19 2
26 19 20 1
27 20 33 1
28 8 21 1
29 20 21 2
30 21 34 1
31 19 22 1
32 22 23 1
33 23 35 1
34 23 36 1
35 23 37 1
36 16 24 1
37 24 38 1
38 14 25 1
39 25 39 1
40 11 26 1
41 26 40 1
42 26 41 1
43 26 27 1
44 27 42 1
45 27 43 1
46 27 44 1
@<TRIPOS>SUBSTRUCTURE
1	2GG1228	1	GROUP	1 A	2GG
