# created with PyMOL 3.1.6.1
@<TRIPOS>MOLECULE
6FJ
48 51 1                 
SMALL
USER_CHARGES
@<TRIPOS>ATOM
1	  C1	0.172	36.969	24.466	C.ar	1	6FJ301	0.000	
2	  C2	-0.197	31.890	26.058	C.ar	1	6FJ301	0.000	
3	  C3	-1.453	32.235	25.502	C.ar	1	6FJ301	0.000	
4	  C4	-1.495	32.964	24.296	C.ar	1	6FJ301	0.000	
5	  C5	-0.309	33.451	23.717	C.ar	1	6FJ301	0.000	
6	  C6	0.931	33.095	24.268	C.ar	1	6FJ301	0.000	
7	  C7	0.997	32.359	25.462	C.ar	1	6FJ301	0.000	
8	  C8	-0.344	34.322	22.515	C.2	1	6FJ301	0.000	
9	  N9	-0.953	34.086	21.365	N.2	1	6FJ301	0.000	
10	 N10	0.283	35.560	22.463	N.am	1	6FJ301	0.000	
11	 O11	-2.691	33.300	23.723	O.3	1	6FJ301	0.000	
12	 O12	-0.097	31.169	27.192	O.3	1	6FJ301	0.000	
13	 N13	-0.704	35.194	20.537	N.am	1	6FJ301	0.000	
14	 C14	0.044	36.077	21.244	C.2	1	6FJ301	0.000	
15	 O15	0.423	37.188	20.877	O.2	1	6FJ301	0.000	
16	 C16	0.929	36.218	23.548	C.ar	1	6FJ301	0.000	
17	 C17	2.317	36.136	23.745	C.ar	1	6FJ301	0.000	
18	 C18	2.937	36.783	24.823	C.ar	1	6FJ301	0.000	
19	 C19	2.170	37.527	25.724	C.ar	1	6FJ301	0.000	
20	 C20	2.370	31.979	25.900	C.2	1	6FJ301	0.000	
21	 N21	2.940	30.798	25.507	N.am	1	6FJ301	0.000	
22	 O22	3.026	32.814	26.503	O.2	1	6FJ301	0.000	
23	 C23	4.347	30.492	25.833	C.3	1	6FJ301	0.000	
24	 C24	5.121	30.343	24.541	C.ar	1	6FJ301	0.000	
25	 C25	0.799	37.606	25.540	C.ar	1	6FJ301	0.000	
26	 C26	2.197	29.730	24.840	C.3	1	6FJ301	0.000	
27	 O27	5.276	31.304	23.601	O.3	1	6FJ301	0.000	
28	 C28	6.021	30.824	22.596	C.ar	1	6FJ301	0.000	
29	 C29	6.332	29.535	22.875	C.ar	1	6FJ301	0.000	
30	 C30	5.763	29.222	24.136	C.ar	1	6FJ301	0.000	
31	 F31	3.053	35.430	22.863	 F	1	6FJ301	0.000	
32	 H01	-0.907	37.054	24.339	 H	1	6FJ301	0.000	
33	 H02	-2.376	31.940	26.001	 H	1	6FJ301	0.000	
34	 H03	1.851	33.392	23.765	 H	1	6FJ301	0.000	
35	 H04	-3.018	32.560	23.206	 H	1	6FJ301	0.000	
36	 H05	0.365	30.347	27.010	 H	1	6FJ301	0.000	
37	 H06	-1.024	35.311	19.586	 H	1	6FJ301	0.000	
38	 H07	4.016	36.706	24.958	 H	1	6FJ301	0.000	
39	 H08	2.645	38.039	26.561	 H	1	6FJ301	0.000	
40	 H09	4.403	29.568	26.409	 H	1	6FJ301	0.000	
41	 H10	4.772	31.302	26.425	 H	1	6FJ301	0.000	
42	 H11	0.197	38.177	26.247	 H	1	6FJ301	0.000	
43	 H12	1.272	30.134	24.428	 H	1	6FJ301	0.000	
44	 H13	2.802	29.314	24.034	 H	1	6FJ301	0.000	
45	 H14	1.961	28.946	25.560	 H	1	6FJ301	0.000	
46	 H15	6.325	31.376	21.706	 H	1	6FJ301	0.000	
47	 H16	6.913	28.862	22.245	 H	1	6FJ301	0.000	
48	 H17	5.829	28.274	24.669	 H	1	6FJ301	0.000	
@<TRIPOS>BOND
1 1 16 ar
2 1 25 ar
3 1 32 1
4 2 3 ar
5 2 7 ar
6 2 12 1
7 3 4 ar
8 3 33 1
9 4 5 ar
10 4 11 1
11 5 6 ar
12 6 34 1
13 6 7 ar
14 7 20 1
15 5 8 1
16 8 9 2
17 8 10 1
18 9 13 1
19 11 35 1
20 12 36 1
21 13 37 1
22 10 14 1
23 13 14 1
24 14 15 2
25 10 16 1
26 16 17 ar
27 17 18 ar
28 17 31 1
29 18 38 1
30 18 19 ar
31 19 25 ar
32 19 39 1
33 20 21 1
34 20 22 2
35 21 23 1
36 21 26 1
37 23 40 1
38 23 41 1
39 23 24 1
40 24 27 ar
41 24 30 ar
42 25 42 1
43 26 43 1
44 26 44 1
45 26 45 1
46 27 28 ar
47 28 29 ar
48 28 46 1
49 29 47 1
50 29 30 ar
51 30 48 1
@<TRIPOS>SUBSTRUCTURE
1	6FJ301	1	GROUP	1 A	6FJ
