6FJ
  PyMOL3.1          3D                             0

 48 51  0  0  0  0  0  0  0  0999 V2000
    0.1720   36.9690   24.4660 C   0  0  0  0  0  0  0  0  0  0  0  0
   -0.1970   31.8900   26.0580 C   0  0  0  0  0  0  0  0  0  0  0  0
   -1.4530   32.2350   25.5020 C   0  0  0  0  0  0  0  0  0  0  0  0
   -1.4950   32.9640   24.2960 C   0  0  0  0  0  0  0  0  0  0  0  0
   -0.3090   33.4510   23.7170 C   0  0  0  0  0  0  0  0  0  0  0  0
    0.9310   33.0950   24.2680 C   0  0  0  0  0  0  0  0  0  0  0  0
    0.9970   32.3590   25.4620 C   0  0  0  0  0  0  0  0  0  0  0  0
   -0.3440   34.3220   22.5150 C   0  0  0  0  0  0  0  0  0  0  0  0
   -0.9530   34.0860   21.3650 N   0  0  0  0  0  0  0  0  0  0  0  0
    0.2830   35.5600   22.4630 N   0  0  0  0  0  0  0  0  0  0  0  0
   -2.6910   33.3000   23.7230 O   0  0  0  0  0  0  0  0  0  0  0  0
   -0.0970   31.1690   27.1920 O   0  0  0  0  0  0  0  0  0  0  0  0
   -0.7040   35.1940   20.5370 N   0  0  0  0  0  0  0  0  0  0  0  0
    0.0440   36.0770   21.2440 C   0  0  0  0  0  0  0  0  0  0  0  0
    0.4230   37.1880   20.8770 O   0  0  0  0  0  0  0  0  0  0  0  0
    0.9290   36.2180   23.5480 C   0  0  0  0  0  0  0  0  0  0  0  0
    2.3170   36.1360   23.7450 C   0  0  0  0  0  0  0  0  0  0  0  0
    2.9370   36.7830   24.8230 C   0  0  0  0  0  0  0  0  0  0  0  0
    2.1700   37.5270   25.7240 C   0  0  0  0  0  0  0  0  0  0  0  0
    2.3700   31.9790   25.9000 C   0  0  0  0  0  0  0  0  0  0  0  0
    2.9400   30.7980   25.5070 N   0  0  0  0  0  0  0  0  0  0  0  0
    3.0260   32.8140   26.5030 O   0  0  0  0  0  0  0  0  0  0  0  0
    4.3470   30.4920   25.8330 C   0  0  0  0  0  0  0  0  0  0  0  0
    5.1210   30.3430   24.5410 C   0  0  0  0  0  0  0  0  0  0  0  0
    0.7990   37.6060   25.5400 C   0  0  0  0  0  0  0  0  0  0  0  0
    2.1970   29.7300   24.8400 C   0  0  0  0  0  0  0  0  0  0  0  0
    5.2760   31.3040   23.6010 O   0  0  0  0  0  0  0  0  0  0  0  0
    6.0210   30.8240   22.5960 C   0  0  0  0  0  0  0  0  0  0  0  0
    6.3320   29.5350   22.8750 C   0  0  0  0  0  0  0  0  0  0  0  0
    5.7630   29.2220   24.1360 C   0  0  0  0  0  0  0  0  0  0  0  0
    3.0530   35.4300   22.8630 F   0  0  0  0  0  0  0  0  0  0  0  0
   -0.9072   37.0542   24.3389 H   0  0  0  0  0  0  0  0  0  0  0  0
   -2.3764   31.9404   26.0006 H   0  0  0  0  0  0  0  0  0  0  0  0
    1.8511   33.3923   23.7650 H   0  0  0  0  0  0  0  0  0  0  0  0
   -3.0180   32.5599   23.2064 H   0  0  0  0  0  0  0  0  0  0  0  0
    0.3648   30.3474   27.0097 H   0  0  0  0  0  0  0  0  0  0  0  0
   -1.0245   35.3115   19.5864 H   0  0  0  0  0  0  0  0  0  0  0  0
    4.0158   36.7060   24.9584 H   0  0  0  0  0  0  0  0  0  0  0  0
    2.6446   38.0388   26.5612 H   0  0  0  0  0  0  0  0  0  0  0  0
    4.4030   29.5682   26.4088 H   0  0  0  0  0  0  0  0  0  0  0  0
    4.7721   31.3025   26.4251 H   0  0  0  0  0  0  0  0  0  0  0  0
    0.1973   38.1767   26.2474 H   0  0  0  0  0  0  0  0  0  0  0  0
    1.2724   30.1341   24.4277 H   0  0  0  0  0  0  0  0  0  0  0  0
    2.8021   29.3140   24.0344 H   0  0  0  0  0  0  0  0  0  0  0  0
    1.9611   28.9463   25.5599 H   0  0  0  0  0  0  0  0  0  0  0  0
    6.3248   31.3759   21.7065 H   0  0  0  0  0  0  0  0  0  0  0  0
    6.9134   28.8615   22.2453 H   0  0  0  0  0  0  0  0  0  0  0  0
    5.8291   28.2737   24.6694 H   0  0  0  0  0  0  0  0  0  0  0  0
  1 16  4  0  0  0  0
  1 25  4  0  0  0  0
  1 32  1  0  0  0  0
  2  3  4  0  0  0  0
  2  7  4  0  0  0  0
  2 12  1  0  0  0  0
  3  4  4  0  0  0  0
  3 33  1  0  0  0  0
  4  5  4  0  0  0  0
  4 11  1  0  0  0  0
  5  6  4  0  0  0  0
  6 34  1  0  0  0  0
  6  7  4  0  0  0  0
  7 20  1  0  0  0  0
  5  8  1  0  0  0  0
  8  9  2  0  0  0  0
  8 10  1  0  0  0  0
  9 13  1  0  0  0  0
 11 35  1  0  0  0  0
 12 36  1  0  0  0  0
 13 37  1  0  0  0  0
 10 14  1  0  0  0  0
 13 14  1  0  0  0  0
 14 15  2  0  0  0  0
 10 16  1  0  0  0  0
 16 17  4  0  0  0  0
 17 18  4  0  0  0  0
 17 31  1  0  0  0  0
 18 38  1  0  0  0  0
 18 19  4  0  0  0  0
 19 25  4  0  0  0  0
 19 39  1  0  0  0  0
 20 21  1  0  0  0  0
 20 22  2  0  0  0  0
 21 23  1  0  0  0  0
 21 26  1  0  0  0  0
 23 40  1  0  0  0  0
 23 41  1  0  0  0  0
 23 24  1  0  0  0  0
 24 27  4  0  0  0  0
 24 30  4  0  0  0  0
 25 42  1  0  0  0  0
 26 43  1  0  0  0  0
 26 44  1  0  0  0  0
 26 45  1  0  0  0  0
 27 28  4  0  0  0  0
 28 29  4  0  0  0  0
 28 46  1  0  0  0  0
 29 47  1  0  0  0  0
 29 30  4  0  0  0  0
 30 48  1  0  0  0  0
M  END
$$$$
