# created with PyMOL 3.1.6.1
@<TRIPOS>MOLECULE
ligand_obj
48 51 1                 
SMALL
USER_CHARGES
@<TRIPOS>ATOM
1	  C1	-0.245	37.532	24.431	C.2	1	6FJ301	0.000	
2	  C2	-0.604	32.571	26.052	C.2	1	6FJ301	0.000	
3	  C3	-1.891	32.865	25.570	C.2	1	6FJ301	0.000	
4	  C4	-2.017	33.591	24.375	C.2	1	6FJ301	0.000	
5	  C5	-0.872	34.069	23.706	C.2	1	6FJ301	0.000	
6	  C6	0.404	33.727	24.167	C.2	1	6FJ301	0.000	
7	  C7	0.538	33.039	25.373	C.2	1	6FJ301	0.000	
8	  C8	-0.988	34.911	22.497	C.2	1	6FJ301	0.000	
9	  N9	-1.635	34.627	21.405	N.2	1	6FJ301	0.000	
10	 N10	-0.421	36.175	22.392	N.pl3	1	6FJ301	0.000	
11	 O11	-3.244	33.888	23.863	O.3	1	6FJ301	0.000	
12	 O12	-0.413	31.899	27.202	O.3	1	6FJ301	0.000	
13	 N13	-1.490	35.716	20.532	N.pl3	1	6FJ301	0.000	
14	 C14	-0.757	36.665	21.177	C.2	1	6FJ301	0.000	
15	 O15	-0.430	37.769	20.751	O.2	1	6FJ301	0.000	
16	 C16	0.363	36.834	23.383	C.2	1	6FJ301	0.000	
17	 C17	1.759	36.753	23.326	C.2	1	6FJ301	0.000	
18	 C18	2.552	37.358	24.304	C.2	1	6FJ301	0.000	
19	 C19	1.934	38.072	25.332	C.2	1	6FJ301	0.000	
20	 C20	1.935	32.715	25.737	C.2	1	6FJ301	0.000	
21	 N21	2.449	31.497	25.373	N.pl3	1	6FJ301	0.000	
22	 O22	2.634	33.603	26.225	O.2	1	6FJ301	0.000	
23	 C23	3.876	31.181	25.566	C.3	1	6FJ301	0.000	
24	 C24	4.465	30.889	24.202	C.2	1	6FJ301	0.000	
25	 C25	0.542	38.144	25.406	C.2	1	6FJ301	0.000	
26	 C26	1.617	30.414	24.829	C.3	1	6FJ301	0.000	
27	 O27	4.367	31.701	23.142	O.3	1	6FJ301	0.000	
28	 C28	4.989	31.109	22.089	C.2	1	6FJ301	0.000	
29	 C29	5.469	29.908	22.467	C.2	1	6FJ301	0.000	
30	 C30	5.113	29.761	23.838	C.2	1	6FJ301	0.000	
31	 F31	2.316	36.075	22.302	 F	1	6FJ301	0.000	
32	 H01	-1.332	37.598	24.486	 H	1	6FJ301	0.000	
33	 H02	-2.776	32.535	26.114	 H	1	6FJ301	0.000	
34	 H03	1.287	33.996	23.588	 H	1	6FJ301	0.000	
35	 H04	-3.578	33.133	23.374	 H	1	6FJ301	0.000	
36	 H05	-0.110	31.009	27.007	 H	1	6FJ301	0.000	
37	 H06	-1.862	35.784	19.595	 H	1	6FJ301	0.000	
38	 H07	3.638	37.274	24.265	 H	1	6FJ301	0.000	
39	 H08	2.543	38.577	26.082	 H	1	6FJ301	0.000	
40	 H09	3.993	30.322	26.227	 H	1	6FJ301	0.000	
41	 H10	4.388	32.030	26.020	 H	1	6FJ301	0.000	
42	 H11	0.069	38.680	26.228	 H	1	6FJ301	0.000	
43	 H12	0.698	30.833	24.420	 H	1	6FJ301	0.000	
44	 H13	2.163	29.898	24.039	 H	1	6FJ301	0.000	
45	 H14	1.372	29.709	25.623	 H	1	6FJ301	0.000	
46	 H15	5.085	31.539	21.092	 H	1	6FJ301	0.000	
47	 H16	6.017	29.196	21.850	 H	1	6FJ301	0.000	
48	 H17	5.324	28.901	24.474	 H	1	6FJ301	0.000	
@<TRIPOS>BOND
1 1 32 1
2 2 3 1
3 3 33 1
4 3 4 2
5 4 5 1
6 5 6 2
7 6 34 1
8 2 7 2
9 6 7 1
10 5 8 1
11 8 9 2
12 8 10 1
13 4 11 1
14 11 35 1
15 2 12 1
16 12 36 1
17 9 13 1
18 13 37 1
19 10 14 1
20 13 14 1
21 14 15 2
22 1 16 1
23 10 16 1
24 16 17 2
25 17 18 1
26 18 38 1
27 18 19 2
28 19 39 1
29 7 20 1
30 20 21 1
31 20 22 2
32 21 23 1
33 23 40 1
34 23 41 1
35 23 24 1
36 1 25 2
37 19 25 1
38 25 42 1
39 21 26 1
40 26 43 1
41 26 44 1
42 26 45 1
43 24 27 1
44 27 28 1
45 28 46 1
46 28 29 2
47 29 47 1
48 24 30 2
49 29 30 1
50 30 48 1
51 17 31 1
@<TRIPOS>SUBSTRUCTURE
1	6FJ301	1	GROUP	1 A	6FJ
