# created with PyMOL 3.1.6.1
@<TRIPOS>MOLECULE
ligand_obj
31 33 1                 
SMALL
USER_CHARGES
@<TRIPOS>ATOM
1	  C1	37.912	-0.057	-9.193	C.2	1	6DL301	0.000	
2	  C2	38.503	-1.327	-9.076	C.2	1	6DL301	0.000	
3	  C3	39.874	-1.426	-8.838	C.2	1	6DL301	0.000	
4	  C4	40.652	-0.252	-8.799	C.2	1	6DL301	0.000	
5	  C5	40.048	1.014	-8.935	C.2	1	6DL301	0.000	
6	  C6	38.690	1.117	-9.166	C.2	1	6DL301	0.000	
7	  O7	36.599	0.056	-9.474	O.3	1	6DL301	0.000	
8	  O8	40.482	-2.627	-8.663	O.3	1	6DL301	0.000	
9	  C9	42.116	-0.378	-8.633	C.2	1	6DL301	0.000	
10	 N10	42.747	-1.123	-7.758	N.2	1	6DL301	0.000	
11	 N11	44.120	-0.951	-8.001	N.pl3	1	6DL301	0.000	
12	 C12	44.282	-0.109	-9.048	C.2	1	6DL301	0.000	
13	 N13	43.049	0.235	-9.464	N.pl3	1	6DL301	0.000	
14	 C14	42.761	1.074	-10.559	C.2	1	6DL301	0.000	
15	 C15	42.957	2.450	-10.434	C.2	1	6DL301	0.000	
16	 C16	42.639	3.289	-11.501	C.2	1	6DL301	0.000	
17	 C17	42.127	2.761	-12.683	C.2	1	6DL301	0.000	
18	 C18	41.927	1.388	-12.804	C.2	1	6DL301	0.000	
19	 C19	42.260	0.541	-11.754	C.2	1	6DL301	0.000	
20	 O20	45.338	0.272	-9.548	O.2	1	6DL301	0.000	
21	 F21	43.478	2.939	-9.282	 F	1	6DL301	0.000	
22	 H01	37.895	-2.227	-9.170	 H	1	6DL301	0.000	
23	 H02	40.655	1.916	-8.858	 H	1	6DL301	0.000	
24	 H03	38.228	2.091	-9.325	 H	1	6DL301	0.000	
25	 H04	36.241	-0.809	-9.686	 H	1	6DL301	0.000	
26	 H05	40.639	-3.034	-9.518	 H	1	6DL301	0.000	
27	 H06	44.867	-1.386	-7.478	 H	1	6DL301	0.000	
28	 H07	42.792	4.364	-11.409	 H	1	6DL301	0.000	
29	 H08	41.883	3.422	-13.514	 H	1	6DL301	0.000	
30	 H09	41.509	0.978	-13.723	 H	1	6DL301	0.000	
31	 H10	42.132	-0.536	-11.860	 H	1	6DL301	0.000	
@<TRIPOS>BOND
1 1 2 1
2 2 22 1
3 2 3 2
4 3 4 1
5 4 5 2
6 5 23 1
7 1 6 2
8 5 6 1
9 6 24 1
10 1 7 1
11 7 25 1
12 3 8 1
13 8 26 1
14 4 9 1
15 9 10 2
16 10 11 1
17 11 27 1
18 11 12 1
19 9 13 1
20 12 13 1
21 13 14 1
22 14 15 2
23 15 16 1
24 16 28 1
25 16 17 2
26 17 29 1
27 17 18 1
28 18 30 1
29 14 19 1
30 18 19 2
31 19 31 1
32 12 20 2
33 15 21 1
@<TRIPOS>SUBSTRUCTURE
1	6DL301	1	GROUP	1 A	6DL
