# created with PyMOL 3.1.6.1
@<TRIPOS>MOLECULE
ligand_obj
52 56 1                 
SMALL
USER_CHARGES
@<TRIPOS>ATOM
1	  N1	12.514	-10.074	6.002	N.2	1	3P1408	0.000	
2	  C2	12.629	-9.042	6.856	C.2	1	3P1408	0.000	
3	  N3	13.705	-8.247	6.820	N.2	1	3P1408	0.000	
4	  C4	13.476	-10.322	5.087	C.2	1	3P1408	0.000	
5	  N5	15.838	-7.866	5.679	N.pl3	1	3P1408	0.000	
6	  C6	16.453	-8.488	4.651	C.2	1	3P1408	0.000	
7	  N7	15.678	-9.523	4.261	N.2	1	3P1408	0.000	
8	  C8	14.585	-9.525	5.040	C.2	1	3P1408	0.000	
9	  C9	14.697	-8.484	5.925	C.2	1	3P1408	0.000	
10	 C10	16.323	-6.720	6.367	C.3	1	3P1408	0.000	
11	 O11	16.827	-5.779	5.406	O.3	1	3P1408	0.000	
12	 C12	17.745	-4.913	6.184	C.3	1	3P1408	0.000	
13	 C13	18.216	-5.780	7.369	C.3	1	3P1408	0.000	
14	 C14	17.538	-7.112	7.141	C.3	1	3P1408	0.000	
15	 N15	13.345	-11.334	4.241	N.pl3	1	3P1408	0.000	
16	 N16	17.638	-8.136	4.125	N.pl3	1	3P1408	0.000	
17	 C17	18.269	-8.952	3.107	C.3	1	3P1408	0.000	
18	 C18	19.208	-9.948	3.760	C.2	1	3P1408	0.000	
19	 N19	19.125	-11.268	3.430	N.2	1	3P1408	0.000	
20	 C20	21.012	-10.440	5.263	C.2	1	3P1408	0.000	
21	 C21	20.153	-9.516	4.669	C.2	1	3P1408	0.000	
22	 C22	20.908	-11.786	4.927	C.2	1	3P1408	0.000	
23	 C23	19.960	-12.189	4.001	C.2	1	3P1408	0.000	
24	 C24	19.853	-13.551	3.648	C.2	1	3P1408	0.000	
25	 C25	20.706	-14.493	4.230	C.2	1	3P1408	0.000	
26	 C26	21.664	-14.085	5.159	C.2	1	3P1408	0.000	
27	 C27	21.765	-12.725	5.508	C.2	1	3P1408	0.000	
28	 C28	18.966	-4.570	5.324	C.3	1	3P1408	0.000	
29	 O29	19.499	-5.773	4.727	O.3	1	3P1408	0.000	
30	 O30	17.750	-5.212	8.575	O.3	1	3P1408	0.000	
31	 O31	17.141	-7.695	8.415	O.3	1	3P1408	0.000	
32	 H01	11.840	-8.851	7.583	 H	1	3P1408	0.000	
33	 H02	15.521	-6.317	6.985	 H	1	3P1408	0.000	
34	 H03	17.261	-3.989	6.502	 H	1	3P1408	0.000	
35	 H04	19.301	-5.864	7.434	 H	1	3P1408	0.000	
36	 H05	18.168	-7.846	6.640	 H	1	3P1408	0.000	
37	 H06	12.524	-11.921	4.279	 H	1	3P1408	0.000	
38	 H07	14.066	-11.518	3.558	 H	1	3P1408	0.000	
39	 H08	18.094	-7.293	4.443	 H	1	3P1408	0.000	
40	 H09	18.836	-8.311	2.431	 H	1	3P1408	0.000	
41	 H10	17.504	-9.488	2.546	 H	1	3P1408	0.000	
42	 H11	21.759	-10.110	5.985	 H	1	3P1408	0.000	
43	 H12	20.227	-8.458	4.921	 H	1	3P1408	0.000	
44	 H13	19.105	-13.869	2.921	 H	1	3P1408	0.000	
45	 H14	20.623	-15.545	3.958	 H	1	3P1408	0.000	
46	 H15	22.332	-14.817	5.613	 H	1	3P1408	0.000	
47	 H16	22.513	-12.404	6.233	 H	1	3P1408	0.000	
48	 H17	19.730	-4.112	5.952	 H	1	3P1408	0.000	
49	 H18	18.672	-3.875	4.538	 H	1	3P1408	0.000	
50	 H19	19.565	-5.657	3.776	 H	1	3P1408	0.000	
51	 H20	17.770	-4.255	8.507	 H	1	3P1408	0.000	
52	 H21	17.199	-7.029	9.104	 H	1	3P1408	0.000	
@<TRIPOS>BOND
1 1 2 2
2 2 32 1
3 2 3 1
4 1 4 1
5 5 6 1
6 6 7 2
7 4 8 2
8 7 8 1
9 3 9 2
10 5 9 1
11 8 9 1
12 5 10 1
13 10 33 1
14 10 11 1
15 11 12 1
16 12 34 1
17 12 13 1
18 13 35 1
19 10 14 1
20 13 14 1
21 14 36 1
22 4 15 1
23 15 37 1
24 15 38 1
25 6 16 1
26 16 39 1
27 16 17 1
28 17 40 1
29 17 41 1
30 17 18 1
31 18 19 1
32 20 42 1
33 18 21 2
34 20 21 1
35 21 43 1
36 20 22 2
37 19 23 2
38 22 23 1
39 23 24 1
40 24 44 1
41 24 25 2
42 25 45 1
43 25 26 1
44 26 46 1
45 22 27 1
46 26 27 2
47 27 47 1
48 12 28 1
49 28 48 1
50 28 49 1
51 28 29 1
52 29 50 1
53 13 30 1
54 30 51 1
55 14 31 1
56 31 52 1
@<TRIPOS>SUBSTRUCTURE
1	3P1408	1	GROUP	1 A	3P1
