# created with PyMOL 3.1.6.1
@<TRIPOS>MOLECULE
6FF
48 50 1                 
SMALL
USER_CHARGES
@<TRIPOS>ATOM
1	  C1	-0.030	32.140	25.665	C.ar	1	6FF301	0.000	
2	  C2	-1.267	32.359	25.020	C.ar	1	6FF301	0.000	
3	  C3	-1.289	33.082	23.829	C.ar	1	6FF301	0.000	
4	  C4	-0.104	33.654	23.331	C.ar	1	6FF301	0.000	
5	  C5	1.117	33.400	23.957	C.ar	1	6FF301	0.000	
6	  C6	1.154	32.732	25.171	C.ar	1	6FF301	0.000	
7	  O7	-0.015	31.436	26.822	O.3	1	6FF301	0.000	
8	  O8	-2.450	33.277	23.152	O.3	1	6FF301	0.000	
9	  C9	-0.125	34.512	22.133	C.2	1	6FF301	0.000	
10	 N10	-0.727	34.250	20.994	N.2	1	6FF301	0.000	
11	 N11	-0.483	35.342	20.151	N.am	1	6FF301	0.000	
12	 C12	0.243	36.262	20.828	C.2	1	6FF301	0.000	
13	 N13	0.465	35.771	22.069	N.am	1	6FF301	0.000	
14	 C14	1.171	36.440	23.094	C.ar	1	6FF301	0.000	
15	 C15	2.547	36.626	22.955	C.ar	1	6FF301	0.000	
16	 C16	3.280	37.298	23.950	C.ar	1	6FF301	0.000	
17	 C17	2.615	37.799	25.069	C.ar	1	6FF301	0.000	
18	 C18	1.240	37.629	25.207	C.ar	1	6FF301	0.000	
19	 C19	0.510	36.967	24.217	C.ar	1	6FF301	0.000	
20	 O20	0.630	37.349	20.410	O.2	1	6FF301	0.000	
21	 S21	2.757	32.463	25.894	S.o2	1	6FF301	0.000	
22	 O22	3.642	33.463	25.367	O.2	1	6FF301	0.000	
23	 O23	2.506	32.369	27.296	O.2	1	6FF301	0.000	
24	 N24	3.175	30.995	25.238	N.pl3	1	6FF301	0.000	
25	 C25	4.110	30.934	24.097	C.3	1	6FF301	0.000	
26	 C26	5.315	29.999	24.318	C.3	1	6FF301	0.000	
27	 C27	6.081	29.877	23.000	C.3	1	6FF301	0.000	
28	 C28	2.464	29.779	25.675	C.3	1	6FF301	0.000	
29	 F29	3.146	36.113	21.863	 F	1	6FF301	0.000	
30	 H01	-2.191	31.968	25.447	 H	1	6FF301	0.000	
31	 H02	2.045	33.728	23.489	 H	1	6FF301	0.000	
32	 H03	0.863	31.076	26.967	 H	1	6FF301	0.000	
33	 H04	-2.776	32.435	22.826	 H	1	6FF301	0.000	
34	 H05	-0.797	35.429	19.195	 H	1	6FF301	0.000	
35	 H06	4.358	37.426	23.847	 H	1	6FF301	0.000	
36	 H07	3.175	38.327	25.840	 H	1	6FF301	0.000	
37	 H08	0.731	38.014	26.091	 H	1	6FF301	0.000	
38	 H09	-0.570	36.859	24.315	 H	1	6FF301	0.000	
39	 H10	4.513	31.939	23.968	 H	1	6FF301	0.000	
40	 H11	3.561	30.585	23.222	 H	1	6FF301	0.000	
41	 H12	4.971	29.017	24.643	 H	1	6FF301	0.000	
42	 H13	5.967	30.414	25.086	 H	1	6FF301	0.000	
43	 H14	7.079	29.484	23.195	 H	1	6FF301	0.000	
44	 H15	5.549	29.200	22.331	 H	1	6FF301	0.000	
45	 H16	6.162	30.859	22.534	 H	1	6FF301	0.000	
46	 H17	1.492	29.730	25.183	 H	1	6FF301	0.000	
47	 H18	3.050	28.899	25.408	 H	1	6FF301	0.000	
48	 H19	2.323	29.808	26.755	 H	1	6FF301	0.000	
@<TRIPOS>BOND
1 1 2 ar
2 1 6 ar
3 1 7 1
4 2 3 ar
5 2 30 1
6 3 4 ar
7 3 8 1
8 4 5 ar
9 5 6 ar
10 5 31 1
11 6 21 1
12 7 32 1
13 8 33 1
14 4 9 1
15 9 10 2
16 9 13 1
17 10 11 1
18 11 34 1
19 11 12 1
20 12 13 1
21 12 20 2
22 13 14 1
23 14 15 ar
24 14 19 ar
25 15 16 ar
26 15 29 1
27 16 17 ar
28 16 35 1
29 17 18 ar
30 17 36 1
31 18 37 1
32 18 19 ar
33 19 38 1
34 21 22 2
35 21 23 2
36 21 24 1
37 24 25 1
38 24 28 1
39 25 26 1
40 25 39 1
41 25 40 1
42 26 41 1
43 26 42 1
44 26 27 1
45 27 43 1
46 27 44 1
47 27 45 1
48 28 46 1
49 28 47 1
50 28 48 1
@<TRIPOS>SUBSTRUCTURE
1	6FF301	1	GROUP	1 A	6FF
