6FF
  PyMOL3.1          3D                             0

 48 50  0  0  0  0  0  0  0  0999 V2000
   -0.0300   32.1400   25.6650 C   0  0  0  0  0  0  0  0  0  0  0  0
   -1.2670   32.3590   25.0200 C   0  0  0  0  0  0  0  0  0  0  0  0
   -1.2890   33.0820   23.8290 C   0  0  0  0  0  0  0  0  0  0  0  0
   -0.1040   33.6540   23.3310 C   0  0  0  0  0  0  0  0  0  0  0  0
    1.1170   33.4000   23.9570 C   0  0  0  0  0  0  0  0  0  0  0  0
    1.1540   32.7320   25.1710 C   0  0  0  0  0  0  0  0  0  0  0  0
   -0.0150   31.4360   26.8220 O   0  0  0  0  0  0  0  0  0  0  0  0
   -2.4500   33.2770   23.1520 O   0  0  0  0  0  0  0  0  0  0  0  0
   -0.1250   34.5120   22.1330 C   0  0  0  0  0  0  0  0  0  0  0  0
   -0.7270   34.2500   20.9940 N   0  0  0  0  0  0  0  0  0  0  0  0
   -0.4830   35.3420   20.1510 N   0  0  0  0  0  0  0  0  0  0  0  0
    0.2430   36.2620   20.8280 C   0  0  0  0  0  0  0  0  0  0  0  0
    0.4650   35.7710   22.0690 N   0  0  0  0  0  0  0  0  0  0  0  0
    1.1710   36.4400   23.0940 C   0  0  0  0  0  0  0  0  0  0  0  0
    2.5470   36.6260   22.9550 C   0  0  0  0  0  0  0  0  0  0  0  0
    3.2800   37.2980   23.9500 C   0  0  0  0  0  0  0  0  0  0  0  0
    2.6150   37.7990   25.0690 C   0  0  0  0  0  0  0  0  0  0  0  0
    1.2400   37.6290   25.2070 C   0  0  0  0  0  0  0  0  0  0  0  0
    0.5100   36.9670   24.2170 C   0  0  0  0  0  0  0  0  0  0  0  0
    0.6300   37.3490   20.4100 O   0  0  0  0  0  0  0  0  0  0  0  0
    2.7570   32.4630   25.8940 S   0  0  0  0  0  0  0  0  0  0  0  0
    3.6420   33.4630   25.3670 O   0  0  0  0  0  0  0  0  0  0  0  0
    2.5060   32.3690   27.2960 O   0  0  0  0  0  0  0  0  0  0  0  0
    3.1750   30.9950   25.2380 N   0  0  0  0  0  0  0  0  0  0  0  0
    4.1100   30.9340   24.0970 C   0  0  0  0  0  0  0  0  0  0  0  0
    5.3150   29.9990   24.3180 C   0  0  0  0  0  0  0  0  0  0  0  0
    6.0810   29.8770   23.0000 C   0  0  0  0  0  0  0  0  0  0  0  0
    2.4640   29.7790   25.6750 C   0  0  0  0  0  0  0  0  0  0  0  0
    3.1460   36.1130   21.8630 F   0  0  0  0  0  0  0  0  0  0  0  0
   -2.1906   31.9684   25.4473 H   0  0  0  0  0  0  0  0  0  0  0  0
    2.0453   33.7282   23.4895 H   0  0  0  0  0  0  0  0  0  0  0  0
    0.8630   31.0757   26.9666 H   0  0  0  0  0  0  0  0  0  0  0  0
   -2.7759   32.4351   22.8255 H   0  0  0  0  0  0  0  0  0  0  0  0
   -0.7973   35.4285   19.1950 H   0  0  0  0  0  0  0  0  0  0  0  0
    4.3576   37.4260   23.8474 H   0  0  0  0  0  0  0  0  0  0  0  0
    3.1754   38.3271   25.8405 H   0  0  0  0  0  0  0  0  0  0  0  0
    0.7313   38.0139   26.0908 H   0  0  0  0  0  0  0  0  0  0  0  0
   -0.5702   36.8593   24.3151 H   0  0  0  0  0  0  0  0  0  0  0  0
    4.5126   31.9387   23.9678 H   0  0  0  0  0  0  0  0  0  0  0  0
    3.5611   30.5847   23.2225 H   0  0  0  0  0  0  0  0  0  0  0  0
    4.9714   29.0169   24.6429 H   0  0  0  0  0  0  0  0  0  0  0  0
    5.9673   30.4137   25.0865 H   0  0  0  0  0  0  0  0  0  0  0  0
    7.0789   29.4844   23.1954 H   0  0  0  0  0  0  0  0  0  0  0  0
    5.5493   29.2000   22.3314 H   0  0  0  0  0  0  0  0  0  0  0  0
    6.1623   30.8591   22.5341 H   0  0  0  0  0  0  0  0  0  0  0  0
    1.4924   29.7304   25.1833 H   0  0  0  0  0  0  0  0  0  0  0  0
    3.0498   28.8993   25.4085 H   0  0  0  0  0  0  0  0  0  0  0  0
    2.3227   29.8085   26.7554 H   0  0  0  0  0  0  0  0  0  0  0  0
  1  2  4  0  0  0  0
  1  6  4  0  0  0  0
  1  7  1  0  0  0  0
  2  3  4  0  0  0  0
  2 30  1  0  0  0  0
  3  4  4  0  0  0  0
  3  8  1  0  0  0  0
  4  5  4  0  0  0  0
  5  6  4  0  0  0  0
  5 31  1  0  0  0  0
  6 21  1  0  0  0  0
  7 32  1  0  0  0  0
  8 33  1  0  0  0  0
  4  9  1  0  0  0  0
  9 10  2  0  0  0  0
  9 13  1  0  0  0  0
 10 11  1  0  0  0  0
 11 34  1  0  0  0  0
 11 12  1  0  0  0  0
 12 13  1  0  0  0  0
 12 20  2  0  0  0  0
 13 14  1  0  0  0  0
 14 15  4  0  0  0  0
 14 19  4  0  0  0  0
 15 16  4  0  0  0  0
 15 29  1  0  0  0  0
 16 17  4  0  0  0  0
 16 35  1  0  0  0  0
 17 18  4  0  0  0  0
 17 36  1  0  0  0  0
 18 37  1  0  0  0  0
 18 19  4  0  0  0  0
 19 38  1  0  0  0  0
 21 22  2  0  0  0  0
 21 23  2  0  0  0  0
 21 24  1  0  0  0  0
 24 25  1  0  0  0  0
 24 28  1  0  0  0  0
 25 26  1  0  0  0  0
 25 39  1  0  0  0  0
 25 40  1  0  0  0  0
 26 41  1  0  0  0  0
 26 42  1  0  0  0  0
 26 27  1  0  0  0  0
 27 43  1  0  0  0  0
 27 44  1  0  0  0  0
 27 45  1  0  0  0  0
 28 46  1  0  0  0  0
 28 47  1  0  0  0  0
 28 48  1  0  0  0  0
M  END
$$$$
