# created with PyMOL 3.1.6.1
@<TRIPOS>MOLECULE
ligand_obj
52 55 1                 
SMALL
USER_CHARGES
@<TRIPOS>ATOM
1	  C1	-0.867	11.092	25.727	C.2	1	EFU301	0.000	
2	  C2	-2.035	11.478	25.019	C.2	1	EFU301	0.000	
3	  C3	-1.952	12.184	23.832	C.2	1	EFU301	0.000	
4	  C4	0.407	11.370	25.190	C.2	1	EFU301	0.000	
5	  O5	-3.259	11.262	25.555	O.3	1	EFU301	0.000	
6	  C6	-0.967	10.365	27.027	C.2	1	EFU301	0.000	
7	  N7	-0.675	9.029	27.147	N.pl3	1	EFU301	0.000	
8	  O8	-1.297	11.013	28.017	O.2	1	EFU301	0.000	
9	  C9	0.492	12.011	23.943	C.2	1	EFU301	0.000	
10	 C10	-0.693	12.438	23.273	C.2	1	EFU301	0.000	
11	 N11	-0.300	13.024	22.106	N.pl3	1	EFU301	0.000	
12	 N12	1.092	12.961	22.013	N.2	1	EFU301	0.000	
13	 C13	1.604	12.429	23.090	C.2	1	EFU301	0.000	
14	 C14	3.070	12.119	23.290	C.3	1	EFU301	0.000	
15	 C15	3.746	12.760	24.476	C.2	1	EFU301	0.000	
16	 C16	4.147	11.979	25.560	C.2	1	EFU301	0.000	
17	 C17	5.176	13.904	26.600	C.2	1	EFU301	0.000	
18	 C18	4.787	14.669	25.502	C.2	1	EFU301	0.000	
19	 C19	4.874	12.548	26.614	C.2	1	EFU301	0.000	
20	 C20	4.076	14.113	24.439	C.2	1	EFU301	0.000	
21	 C21	-0.763	8.378	28.466	C.3	1	EFU301	0.000	
22	 C22	-0.361	8.138	26.006	C.3	1	EFU301	0.000	
23	 C23	1.061	8.109	25.504	C.2	1	EFU301	0.000	
24	 C24	1.256	7.848	24.146	C.2	1	EFU301	0.000	
25	 C25	3.637	8.037	24.432	C.2	1	EFU301	0.000	
26	 C26	3.443	8.304	25.787	C.2	1	EFU301	0.000	
27	 C27	2.539	7.817	23.604	C.2	1	EFU301	0.000	
28	 C28	2.160	8.336	26.333	C.2	1	EFU301	0.000	
29	 C29	5.126	16.119	25.463	C.3	1	EFU301	0.000	
30	 H01	-2.856	12.539	23.337	 H	1	EFU301	0.000	
31	 H02	1.310	11.092	25.733	 H	1	EFU301	0.000	
32	 H03	-3.505	12.010	26.105	 H	1	EFU301	0.000	
33	 H04	-0.916	13.437	21.420	 H	1	EFU301	0.000	
34	 H05	3.571	12.537	22.417	 H	1	EFU301	0.000	
35	 H06	3.167	11.039	23.399	 H	1	EFU301	0.000	
36	 H07	3.893	10.919	25.587	 H	1	EFU301	0.000	
37	 H08	5.708	14.362	27.434	 H	1	EFU301	0.000	
38	 H09	5.203	11.926	27.446	 H	1	EFU301	0.000	
39	 H10	3.782	14.729	23.590	 H	1	EFU301	0.000	
40	 H11	-1.804	8.347	28.787	 H	1	EFU301	0.000	
41	 H12	-0.375	7.362	28.397	 H	1	EFU301	0.000	
42	 H13	-0.177	8.943	29.191	 H	1	EFU301	0.000	
43	 H14	-0.936	8.546	25.175	 H	1	EFU301	0.000	
44	 H15	-0.621	7.123	26.305	 H	1	EFU301	0.000	
45	 H16	0.395	7.667	23.503	 H	1	EFU301	0.000	
46	 H17	4.646	8.001	24.022	 H	1	EFU301	0.000	
47	 H18	4.305	8.490	26.428	 H	1	EFU301	0.000	
48	 H19	2.682	7.622	22.541	 H	1	EFU301	0.000	
49	 H20	2.018	8.536	27.395	 H	1	EFU301	0.000	
50	 H21	6.079	16.255	24.952	 H	1	EFU301	0.000	
51	 H22	4.346	16.661	24.928	 H	1	EFU301	0.000	
52	 H23	5.202	16.502	26.480	 H	1	EFU301	0.000	
@<TRIPOS>BOND
1 1 2 2
2 2 3 1
3 3 30 1
4 1 4 1
5 4 31 1
6 2 5 1
7 5 32 1
8 1 6 1
9 6 7 1
10 6 8 2
11 4 9 2
12 3 10 2
13 9 10 1
14 10 11 1
15 11 33 1
16 11 12 1
17 9 13 1
18 12 13 2
19 13 14 1
20 14 34 1
21 14 35 1
22 14 15 1
23 15 16 1
24 16 36 1
25 17 37 1
26 17 18 2
27 16 19 2
28 17 19 1
29 19 38 1
30 15 20 2
31 18 20 1
32 20 39 1
33 7 21 1
34 21 40 1
35 21 41 1
36 21 42 1
37 7 22 1
38 22 43 1
39 22 44 1
40 22 23 1
41 23 24 1
42 24 45 1
43 25 46 1
44 25 26 2
45 26 47 1
46 24 27 2
47 25 27 1
48 27 48 1
49 23 28 2
50 26 28 1
51 28 49 1
52 18 29 1
53 29 50 1
54 29 51 1
55 29 52 1
@<TRIPOS>SUBSTRUCTURE
1	EFU301	1	GROUP	1 A	EFU
