# created with PyMOL 3.1.6.1
@<TRIPOS>MOLECULE
ligand_obj
50 55 1                 
SMALL
USER_CHARGES
@<TRIPOS>ATOM
1	  C1	13.152	14.495	26.276	C.2	1	YKJ1224	0.000	
2	  N1	12.926	14.672	27.652	N.2	1	YKJ1224	0.000	
3	  C2	11.603	14.736	28.144	C.2	1	YKJ1224	0.000	
4	  N2	9.135	14.634	27.373	N.pl3	1	YKJ1224	0.000	
5	  C3	12.105	14.363	25.332	C.2	1	YKJ1224	0.000	
6	  N3	9.592	14.351	25.237	N.2	1	YKJ1224	0.000	
7	  C4	8.593	14.474	26.133	C.2	1	YKJ1224	0.000	
8	  N4	3.304	11.880	24.755	N.pl3	1	YKJ1224	0.000	
9	  C5	10.785	14.432	25.835	C.2	1	YKJ1224	0.000	
10	  N5	-1.404	10.612	26.159	N.2	1	YKJ1224	0.000	
11	  C6	10.507	14.612	27.258	C.2	1	YKJ1224	0.000	
12	  N6	-2.542	11.630	24.405	N.pl3	1	YKJ1224	0.000	
13	  C7	7.249	14.462	25.882	C.2	1	YKJ1224	0.000	
14	  C8	4.360	14.754	25.481	C.2	1	YKJ1224	0.000	
15	  C9	5.076	15.729	26.264	C.2	1	YKJ1224	0.000	
16	 C10	6.500	15.572	26.445	C.2	1	YKJ1224	0.000	
17	 C11	2.215	11.719	23.989	C.2	1	YKJ1224	0.000	
18	 C12	1.053	11.234	24.920	C.2	1	YKJ1224	0.000	
19	 O13	2.178	11.914	22.759	O.2	1	YKJ1224	0.000	
20	 C14	1.064	10.531	26.170	C.2	1	YKJ1224	0.000	
21	 C15	-0.193	10.233	26.769	C.2	1	YKJ1224	0.000	
22	 C16	4.560	12.625	24.138	C.3	1	YKJ1224	0.000	
23	 C17	5.083	13.637	24.911	C.2	1	YKJ1224	0.000	
24	 C18	6.502	13.450	25.075	C.2	1	YKJ1224	0.000	
25	 C19	5.608	11.679	23.763	C.2	1	YKJ1224	0.000	
26	 C20	6.840	12.245	24.380	C.2	1	YKJ1224	0.000	
27	 C21	8.090	11.509	24.170	C.2	1	YKJ1224	0.000	
28	 C22	8.134	10.265	23.391	C.2	1	YKJ1224	0.000	
29	 C23	6.906	9.746	22.808	C.2	1	YKJ1224	0.000	
30	 C24	5.662	10.463	23.001	C.2	1	YKJ1224	0.000	
31	 C25	-0.178	11.641	24.264	C.2	1	YKJ1224	0.000	
32	 C26	-1.383	11.297	24.940	C.2	1	YKJ1224	0.000	
33	 H01	14.181	14.458	25.919	 H	1	YKJ1224	0.000	
34	 H02	11.426	14.881	29.210	 H	1	YKJ1224	0.000	
35	 H03	8.617	14.749	28.232	 H	1	YKJ1224	0.000	
36	 H04	12.306	14.216	24.271	 H	1	YKJ1224	0.000	
37	 H05	3.324	11.534	25.704	 H	1	YKJ1224	0.000	
38	 H06	-2.568	12.125	23.525	 H	1	YKJ1224	0.000	
39	 H07	-3.403	11.390	24.876	 H	1	YKJ1224	0.000	
40	 H08	3.287	14.856	25.320	 H	1	YKJ1224	0.000	
41	 H09	4.551	16.572	26.713	 H	1	YKJ1224	0.000	
42	 H10	7.036	16.319	27.030	 H	1	YKJ1224	0.000	
43	 H11	2.000	10.236	26.644	 H	1	YKJ1224	0.000	
44	 H12	-0.218	9.700	27.720	 H	1	YKJ1224	0.000	
45	 H13	4.168	13.116	23.247	 H	1	YKJ1224	0.000	
46	 H14	9.012	11.896	24.604	 H	1	YKJ1224	0.000	
47	 H15	9.077	9.736	23.251	 H	1	YKJ1224	0.000	
48	 H16	6.922	8.823	22.229	 H	1	YKJ1224	0.000	
49	 H17	4.747	10.071	22.558	 H	1	YKJ1224	0.000	
50	 H18	-0.179	12.176	23.314	 H	1	YKJ1224	0.000	
@<TRIPOS>BOND
1 1 33 1
2 1 2 2
3 2 3 1
4 3 34 1
5 4 35 1
6 1 5 1
7 5 36 1
8 4 7 1
9 6 7 2
10 8 37 1
11 5 9 2
12 6 9 1
13 3 11 2
14 4 11 1
15 9 11 1
16 12 38 1
17 12 39 1
18 7 13 1
19 14 40 1
20 14 15 1
21 15 41 1
22 13 16 1
23 15 16 2
24 16 42 1
25 8 17 1
26 17 18 1
27 17 19 2
28 18 20 1
29 20 43 1
30 10 21 1
31 20 21 2
32 21 44 1
33 8 22 1
34 22 45 1
35 14 23 2
36 22 23 1
37 13 24 2
38 23 24 1
39 22 25 1
40 24 26 1
41 25 26 1
42 26 27 2
43 27 46 1
44 27 28 1
45 28 47 1
46 28 29 2
47 29 48 1
48 25 30 2
49 29 30 1
50 30 49 1
51 18 31 2
52 31 50 1
53 10 32 2
54 12 32 1
55 31 32 1
@<TRIPOS>SUBSTRUCTURE
1	YKJ1224	1	GROUP	1 A	YKJ
