# created with PyMOL 3.1.6.1
@<TRIPOS>MOLECULE
ligand_obj
31 33 1                 
SMALL
USER_CHARGES
@<TRIPOS>ATOM
1	  C1	-37.910	-0.322	9.027	C.2	1	6DL301	0.000	
2	  C2	-38.483	-1.609	9.030	C.2	1	6DL301	0.000	
3	  C3	-39.862	-1.710	8.815	C.2	1	6DL301	0.000	
4	  C4	-40.655	-0.562	8.603	C.2	1	6DL301	0.000	
5	  C5	-40.076	0.706	8.642	C.2	1	6DL301	0.000	
6	  C6	-38.723	0.801	8.848	C.2	1	6DL301	0.000	
7	  O7	-36.601	-0.114	9.308	O.3	1	6DL301	0.000	
8	  O8	-40.453	-2.916	8.760	O.3	1	6DL301	0.000	
9	  C9	-42.120	-0.648	8.457	C.2	1	6DL301	0.000	
10	 N10	-42.776	-1.304	7.538	N.2	1	6DL301	0.000	
11	 N11	-44.135	-1.130	7.807	N.pl3	1	6DL301	0.000	
12	 C12	-44.256	-0.364	8.911	C.2	1	6DL301	0.000	
13	 N13	-43.022	-0.054	9.336	N.pl3	1	6DL301	0.000	
14	 C14	-42.724	0.750	10.463	C.2	1	6DL301	0.000	
15	 C15	-42.741	2.150	10.355	C.2	1	6DL301	0.000	
16	 C16	-42.428	2.952	11.454	C.2	1	6DL301	0.000	
17	 C17	-42.094	2.358	12.664	C.2	1	6DL301	0.000	
18	 C18	-42.091	0.970	12.776	C.2	1	6DL301	0.000	
19	 C19	-42.406	0.158	11.687	C.2	1	6DL301	0.000	
20	 O20	-45.287	-0.003	9.446	O.2	1	6DL301	0.000	
21	  BR	-37.987	2.518	8.778	Br	1	6DL301	0.000	
22	 F21	-43.101	2.725	9.188	 F	1	6DL301	0.000	
23	 H01	-37.872	-2.497	9.194	 H	1	6DL301	0.000	
24	 H02	-40.684	1.601	8.512	 H	1	6DL301	0.000	
25	 H03	-36.249	-0.874	9.778	 H	1	6DL301	0.000	
26	 H04	-40.598	-3.243	9.651	 H	1	6DL301	0.000	
27	 H05	-44.898	-1.513	7.267	 H	1	6DL301	0.000	
28	 H06	-42.446	4.038	11.363	 H	1	6DL301	0.000	
29	 H07	-41.835	2.976	13.523	 H	1	6DL301	0.000	
30	 H08	-41.838	0.510	13.731	 H	1	6DL301	0.000	
31	 H09	-42.404	-0.927	11.790	 H	1	6DL301	0.000	
@<TRIPOS>BOND
1 1 2 1
2 2 23 1
3 2 3 2
4 3 4 1
5 4 5 2
6 5 24 1
7 1 6 2
8 5 6 1
9 1 7 1
10 7 25 1
11 3 8 1
12 8 26 1
13 4 9 1
14 9 10 2
15 10 11 1
16 11 27 1
17 11 12 1
18 9 13 1
19 12 13 1
20 13 14 1
21 14 15 2
22 15 16 1
23 16 28 1
24 16 17 2
25 17 29 1
26 17 18 1
27 18 30 1
28 14 19 1
29 18 19 2
30 19 31 1
31 12 20 2
32 6 21 1
33 15 22 1
@<TRIPOS>SUBSTRUCTURE
1	6DL301	1	GROUP	1 A	6DL
